@<TRIPOS>MOLECULE
L01
   14    14     1     0     0
SMALL
resp


@<TRIPOS>ATOM
      1 C1          -2.5390     0.0000    -0.0000 ca         1 L01      -0.182422
      2 C2          -1.8340    -1.2080     0.0000 ca         1 L01      -0.157531
      3 C3          -1.8340     1.2080    -0.0000 ca         1 L01      -0.157531
      4 C4          -0.4370    -1.2030     0.0000 ca         1 L01      -0.163115
      5 C5          -0.4370     1.2030    -0.0000 ca         1 L01      -0.163115
      6 C6           0.2800    -0.0000    -0.0000 ca         1 L01       0.029847
      7 C7           1.8360     0.0000     0.0000 c          1 L01       0.769993
      8 O1           2.3680     1.1390     0.0000 o          1 L01      -0.782199
      9 O2           2.3680    -1.1390    -0.0000 o          1 L01      -0.782199
     10 H1          -3.6290    -0.0000     0.0000 ha         1 L01       0.112166
     11 H2          -2.3780    -2.1530     0.0000 ha         1 L01       0.105574
     12 H3          -2.3780     2.1530    -0.0000 ha         1 L01       0.105574
     13 H4           0.1450    -2.1210     0.0000 ha         1 L01       0.132480
     14 H5           0.1450     2.1210    -0.0000 ha         1 L01       0.132480
@<TRIPOS>BOND
     1     1     2 ar  
     2     1     3 ar  
     3     1    10 1   
     4     2     4 ar  
     5     2    11 1   
     6     3     5 ar  
     7     3    12 1   
     8     4     6 ar  
     9     4    13 1   
    10     5     6 ar  
    11     5    14 1   
    12     6     7 1   
    13     7     8 1   
    14     7     9 1   
@<TRIPOS>SUBSTRUCTURE
     1 L01         1 TEMP              0 ****  ****    0 ROOT
