@<TRIPOS>MOLECULE
L02
   17    17     1     0     0
SMALL
resp


@<TRIPOS>ATOM
      1 C1           0.0450    -1.1990    -0.0050 ca         1 L02      -0.143399
      2 C2           0.0450     1.1990    -0.0050 ca         1 L02      -0.143399
      3 C3          -1.3510    -1.2010    -0.0110 ca         1 L02      -0.310346
      4 C4          -1.3510     1.2010    -0.0110 ca         1 L02      -0.310346
      5 C5           0.7660     0.0000    -0.0000 ca         1 L02      -0.015893
      6 C6          -2.0740     0.0000    -0.0110 ca         1 L02       0.246454
      7 C7           2.3210    -0.0000     0.0040 c          1 L02       0.800589
      8 C8          -3.5870    -0.0000     0.0180 c3         1 L02      -0.340165
      9 O1           2.8520     1.1390     0.0060 o          1 L02      -0.792070
     10 O2           2.8520    -1.1390     0.0060 o          1 L02      -0.792070
     11 H1           0.6210    -2.1200    -0.0080 ha         1 L02       0.142581
     12 H2           0.6210     2.1200    -0.0080 ha         1 L02       0.142581
     13 H3          -1.8940    -2.1480    -0.0190 ha         1 L02       0.136958
     14 H4          -1.8940     2.1480    -0.0190 ha         1 L02       0.136958
     15 H5          -3.9810    -0.0010     1.0460 hc         1 L02       0.080522
     16 H6          -4.0000     0.8870    -0.4800 hc         1 L02       0.080522
     17 H7          -4.0000    -0.8860    -0.4820 hc         1 L02       0.080522
@<TRIPOS>BOND
     1     1     3 ar  
     2     1     5 ar  
     3     1    11 1   
     4     2     4 ar  
     5     2     5 ar  
     6     2    12 1   
     7     3     6 ar  
     8     3    13 1   
     9     4     6 ar  
    10     4    14 1   
    11     5     7 1   
    12     6     8 1   
    13     7     9 1   
    14     7    10 1   
    15     8    15 1   
    16     8    16 1   
    17     8    17 1   
@<TRIPOS>SUBSTRUCTURE
     1 L02         1 TEMP              0 ****  ****    0 ROOT
