@<TRIPOS>MOLECULE
L03
   20    20     1     0     0
SMALL
resp


@<TRIPOS>ATOM
      1 C1           0.4880     1.2000    -0.1190 ca         1 L03      -0.184543
      2 C2           0.4880    -1.2000    -0.1190 ca         1 L03      -0.184543
      3 C3          -0.8980     1.2020    -0.2750 ca         1 L03      -0.202778
      4 C4          -0.8980    -1.2020    -0.2760 ca         1 L03      -0.202778
      5 C5           1.2060     0.0000    -0.0380 ca         1 L03       0.049621
      6 C6          -1.6170     0.0000    -0.3540 ca         1 L03      -0.024730
      7 C7           2.7500    -0.0000     0.1320 c          1 L03       0.763998
      8 C8          -3.8460    -0.0000     0.8850 c3         1 L03      -0.082512
      9 C9          -3.1280     0.0000    -0.4770 c3         1 L03       0.154564
     10 O1           3.2780    -1.1390     0.1910 o          1 L03      -0.781247
     11 O2           3.2780     1.1390     0.1910 o          1 L03      -0.781247
     12 H1           1.0630     2.1200    -0.0610 ha         1 L03       0.139274
     13 H2           1.0630    -2.1200    -0.0610 ha         1 L03       0.139274
     14 H3          -1.4370     2.1490    -0.3430 ha         1 L03       0.121294
     15 H4          -1.4370    -2.1490    -0.3430 ha         1 L03       0.121294
     16 H5          -3.5660    -0.8840     1.4700 hc         1 L03       0.009529
     17 H6          -4.9380     0.0000     0.7650 hc         1 L03       0.009529
     18 H7          -3.5660     0.8830     1.4710 hc         1 L03       0.009529
     19 H8          -3.4540     0.8800    -1.0490 hc         1 L03      -0.036764
     20 H9          -3.4540    -0.8800    -1.0490 hc         1 L03      -0.036764
@<TRIPOS>BOND
     1     1     3 ar  
     2     1     5 ar  
     3     1    12 1   
     4     2     4 ar  
     5     2     5 ar  
     6     2    13 1   
     7     3     6 ar  
     8     3    14 1   
     9     4     6 ar  
    10     4    15 1   
    11     5     7 1   
    12     6     9 1   
    13     7    10 1   
    14     7    11 1   
    15     8     9 1   
    16     8    16 1   
    17     8    17 1   
    18     8    18 1   
    19     9    19 1   
    20     9    20 1   
@<TRIPOS>SUBSTRUCTURE
     1 L03         1 TEMP              0 ****  ****    0 ROOT
