@<TRIPOS>MOLECULE
L05
   14    14     1     0     0
SMALL
resp


@<TRIPOS>ATOM
      1 C1          -0.3400     2.1540     0.0000 ca         1 L05      -0.201641
      2 C2           0.9030     1.5200     0.0000 ca         1 L05      -0.149335
      3 C3          -1.5190     1.4020    -0.0000 ca         1 L05      -0.129467
      4 C4          -0.1790    -0.6360     0.0000 ca         1 L05      -0.107568
      5 C5           0.9970     0.1240     0.0000 ca         1 L05      -0.007172
      6 C6          -1.4090     0.0120    -0.0000 ca         1 L05       0.035591
      7 C7           2.3860    -0.5870     0.0000 c          1 L05       0.775634
      8 O1           2.3360    -1.8400    -0.0000 o          1 L05      -0.772967
      9 O2           3.3710     0.1920    -0.0000 o          1 L05      -0.772967
     10 Cl1         -2.9150    -0.9540    -0.0000 cl         1 L05      -0.210513
     11 H1          -0.4050     3.2420    -0.0000 ha         1 L05       0.130143
     12 H2           1.8370     2.0740     0.0000 ha         1 L05       0.143143
     13 H3          -2.4950     1.8770    -0.0000 ha         1 L05       0.122492
     14 H4          -0.0820    -1.7160     0.0000 ha         1 L05       0.144626
@<TRIPOS>BOND
     1     1     2 ar  
     2     1     3 ar  
     3     1    11 1   
     4     2     5 ar  
     5     2    12 1   
     6     3     6 ar  
     7     3    13 1   
     8     4     5 ar  
     9     4     6 ar  
    10     4    14 1   
    11     5     7 1   
    12     6    10 1   
    13     7     8 1   
    14     7     9 1   
@<TRIPOS>SUBSTRUCTURE
     1 L05         1 TEMP              0 ****  ****    0 ROOT
