@<TRIPOS>MOLECULE
L06
   20    20     1     0     0
SMALL
resp


@<TRIPOS>ATOM
      1 C1           1.9470    -0.0000     0.0240 c          1 L06       0.760416
      2 C2          -2.4760     0.0000     0.3120 c3         1 L06       0.103426
      3 C3          -1.7910    -1.2670    -0.2250 c3         1 L06       0.036017
      4 C4          -1.7900     1.2680    -0.2210 c3         1 L06       0.036017
      5 C5          -0.2830    -1.2580     0.0740 c3         1 L06      -0.037199
      6 C6          -0.2820     1.2580     0.0770 c3         1 L06      -0.037199
      7 C7           0.4370     0.0000    -0.4430 c3         1 L06       0.058014
      8 O1           2.1000    -0.0050     1.2750 o          1 L06      -0.805576
      9 O2           2.8060     0.0040    -0.8900 o          1 L06      -0.805576
     10 H1          -3.5470     0.0010     0.0570 hc         1 L06      -0.047898
     11 H2          -2.4150    -0.0020     1.4120 hc         1 L06      -0.047898
     12 H3          -2.2690    -2.1630     0.2020 hc         1 L06      -0.044536
     13 H4          -1.9500    -1.3200    -1.3140 hc         1 L06      -0.044536
     14 H5          -1.9490     1.3240    -1.3100 hc         1 L06      -0.044536
     15 H6          -2.2680     2.1630     0.2080 hc         1 L06      -0.044536
     16 H7          -0.1110    -1.3040     1.1580 hc         1 L06       0.004209
     17 H8           0.1880    -2.1550    -0.3560 hc         1 L06       0.004209
     18 H9           0.1890     2.1550    -0.3500 hc         1 L06       0.004209
     19 H10         -0.1110     1.3010     1.1610 hc         1 L06       0.004209
     20 H11          0.4210     0.0020    -1.5430 hc         1 L06      -0.051239
@<TRIPOS>BOND
     1     1     7 1   
     2     1     8 1   
     3     1     9 1   
     4     2     3 1   
     5     2     4 1   
     6     2    10 1   
     7     2    11 1   
     8     3     5 1   
     9     3    12 1   
    10     3    13 1   
    11     4     6 1   
    12     4    14 1   
    13     4    15 1   
    14     5     7 1   
    15     5    16 1   
    16     5    17 1   
    17     6     7 1   
    18     6    18 1   
    19     6    19 1   
    20     7    20 1   
@<TRIPOS>SUBSTRUCTURE
     1 L06         1 TEMP              0 ****  ****    0 ROOT
