@<TRIPOS>MOLECULE
L07
   23    23     1     0     0
SMALL
resp


@<TRIPOS>ATOM
      1 C1           2.3850     0.0010     0.0230 c          1 L07       0.761127
      2 C2           0.1550    -1.2550     0.0790 c3         1 L07      -0.015088
      3 C3           0.1540     1.2560     0.0720 c3         1 L07      -0.015088
      4 C4          -1.3550    -1.2610    -0.2120 c3         1 L07      -0.138341
      5 C5          -1.3560     1.2600    -0.2200 c3         1 L07      -0.138341
      6 C6           0.8740    -0.0010    -0.4450 c3         1 L07       0.048005
      7 C7          -2.0540     0.0010     0.3240 c3         1 L07       0.359088
      8 C8          -3.5560    -0.0010     0.0170 c3         1 L07      -0.560378
      9 O1           2.5360     0.0090     1.2750 o          1 L07      -0.802919
     10 O2           3.2440    -0.0080    -0.8900 o          1 L07      -0.802919
     11 H1           0.3320    -1.2990     1.1620 hc         1 L07      -0.000300
     12 H2           0.6190    -2.1550    -0.3500 hc         1 L07      -0.000300
     13 H3           0.6170     2.1530    -0.3640 hc         1 L07      -0.000300
     14 H4           0.3320     1.3070     1.1540 hc         1 L07      -0.000300
     15 H5          -1.5210    -1.3160    -1.3010 hc         1 L07       0.010781
     16 H6          -1.8320    -2.1580     0.2160 hc         1 L07       0.010781
     17 H7          -1.8330     2.1590     0.2040 hc         1 L07       0.010781
     18 H8          -1.5220     1.3080    -1.3090 hc         1 L07       0.010781
     19 H9           0.8580    -0.0040    -1.5450 hc         1 L07      -0.046059
     20 H10         -1.9320     0.0040     1.4200 hc         1 L07      -0.029257
     21 H11         -3.7340    -0.0040    -1.0670 hc         1 L07       0.112747
     22 H12         -4.0530     0.8880     0.4300 hc         1 L07       0.112747
     23 H13         -4.0530    -0.8880     0.4350 hc         1 L07       0.112747
@<TRIPOS>BOND
     1     1     6 1   
     2     1     9 1   
     3     1    10 1   
     4     2     4 1   
     5     2     6 1   
     6     2    11 1   
     7     2    12 1   
     8     3     5 1   
     9     3     6 1   
    10     3    13 1   
    11     3    14 1   
    12     4     7 1   
    13     4    15 1   
    14     4    16 1   
    15     5     7 1   
    16     5    17 1   
    17     5    18 1   
    18     6    19 1   
    19     7     8 1   
    20     7    20 1   
    21     8    21 1   
    22     8    22 1   
    23     8    23 1   
@<TRIPOS>SUBSTRUCTURE
     1 L07         1 TEMP              0 ****  ****    0 ROOT
