@<TRIPOS>MOLECULE
L08
   17    17     1     0     0
SMALL
resp


@<TRIPOS>ATOM
      1 C1          -1.4890     0.0440     0.0500 c          1 L08       0.754727
      2 C2           1.5560    -0.8280     0.6770 c3         1 L08      -0.036204
      3 C3           1.9860     0.6230     0.3760 c3         1 L08      -0.036204
      4 C4           0.7070    -1.2090    -0.5450 c3         1 L08       0.068553
      5 C5           0.7940     1.2420    -0.4070 c3         1 L08       0.068553
      6 C6          -0.1320     0.0580    -0.7900 c3         1 L08       0.058879
      7 O1          -1.9140     1.1690     0.4130 o          1 L08      -0.792520
      8 O2          -2.0010    -1.0920     0.2200 o          1 L08      -0.792520
      9 H1           2.4080    -1.4990     0.8600 hc         1 L08      -0.009947
     10 H2           0.9160    -0.8540     1.5690 hc         1 L08      -0.009947
     11 H3           2.2420     1.1860     1.2850 hc         1 L08      -0.009947
     12 H4           2.8920     0.6090    -0.2490 hc         1 L08      -0.009947
     13 H5           1.3690    -1.4360    -1.3980 hc         1 L08      -0.053688
     14 H6           0.0430    -2.0600    -0.3690 hc         1 L08      -0.053688
     15 H7           0.2000     1.9340     0.1980 hc         1 L08      -0.053688
     16 H8           1.1590     1.7980    -1.2830 hc         1 L08      -0.053688
     17 H9          -0.4430     0.1230    -1.8430 hc         1 L08      -0.038724
@<TRIPOS>BOND
     1     1     6 1   
     2     1     7 1   
     3     1     8 1   
     4     2     3 1   
     5     2     4 1   
     6     2     9 1   
     7     2    10 1   
     8     3     5 1   
     9     3    11 1   
    10     3    12 1   
    11     4     6 1   
    12     4    13 1   
    13     4    14 1   
    14     5     6 1   
    15     5    15 1   
    16     5    16 1   
    17     6    17 1   
@<TRIPOS>SUBSTRUCTURE
     1 L08         1 TEMP              0 ****  ****    0 ROOT
