@<TRIPOS>MOLECULE
L09
   23    23     1     0     0
SMALL
resp


@<TRIPOS>ATOM
      1 C1           2.0210     0.1320     0.2290 c          1 L09       0.741984
      2 C2          -2.3990     0.3910     0.5060 c3         1 L09       0.088856
      3 C3          -2.1550    -1.1090     0.2820 c3         1 L09       0.088856
      4 C4          -1.6760     1.3470    -0.4620 c3         1 L09       0.091508
      5 C5          -0.6830    -1.5550     0.2660 c3         1 L09       0.091508
      6 C6          -0.1600     1.4700    -0.2110 c3         1 L09      -0.012117
      7 C7           0.1100    -1.0220    -0.9440 c3         1 L09      -0.012117
      8 C8           0.7740     0.3560    -0.7310 c3         1 L09       0.059636
      9 O1           1.8510     0.4230     1.4450 o          1 L09      -0.790567
     10 O2           3.0230    -0.3720    -0.3330 o          1 L09      -0.790567
     11 H1          -3.4850     0.5730     0.4520 hc         1 L09      -0.058420
     12 H2          -2.0940     0.6530     1.5300 hc         1 L09      -0.058420
     13 H3          -2.6980    -1.6650     1.0640 hc         1 L09      -0.058420
     14 H4          -2.6190    -1.4050    -0.6740 hc         1 L09      -0.058420
     15 H5          -1.8860     1.0520    -1.5030 hc         1 L09      -0.046225
     16 H6          -2.1300     2.3440    -0.3390 hc         1 L09      -0.046225
     17 H7          -0.1720    -1.2380     1.1840 hc         1 L09      -0.046225
     18 H8          -0.6690    -2.6550     0.2570 hc         1 L09      -0.046225
     19 H9           0.1830     2.4280    -0.6290 hc         1 L09      -0.022421
     20 H10          0.0210     1.5300     0.8700 hc         1 L09      -0.022421
     21 H11          0.9300    -1.7110    -1.1810 hc         1 L09      -0.022421
     22 H12         -0.5540    -1.0130    -1.8260 hc         1 L09      -0.022421
     23 H13          1.1890     0.6470    -1.7060 hc         1 L09      -0.048717
@<TRIPOS>BOND
     1     1     8 1   
     2     1     9 1   
     3     1    10 1   
     4     2     3 1   
     5     2     4 1   
     6     2    11 1   
     7     2    12 1   
     8     3     5 1   
     9     3    13 1   
    10     3    14 1   
    11     4     6 1   
    12     4    15 1   
    13     4    16 1   
    14     5     7 1   
    15     5    17 1   
    16     5    18 1   
    17     6     8 1   
    18     6    19 1   
    19     6    20 1   
    20     7     8 1   
    21     7    21 1   
    22     7    22 1   
    23     8    23 1   
@<TRIPOS>SUBSTRUCTURE
     1 L09         1 TEMP              0 ****  ****    0 ROOT
