@<TRIPOS>MOLECULE
L10
   15    14     1     0     0
SMALL
resp


@<TRIPOS>ATOM
      1 C1           3.7860     0.3050    -0.0990 c1         1 L10      -0.529947
      2 C2           2.6130     0.1900     0.1810 c1         1 L10      -0.032913
      3 C3           1.1980     0.0360     0.5160 c3         1 L10       0.115531
      4 C4           0.4160    -0.8890    -0.4430 c3         1 L10      -0.025181
      5 C5          -1.0460    -1.0480    -0.0100 c3         1 L10       0.032400
      6 C6          -1.9220     0.2640    -0.0370 c          1 L10       0.803765
      7 O1          -1.3250     1.3310    -0.3510 o          1 L10      -0.800766
      8 O2          -3.1250     0.0860     0.2610 o          1 L10      -0.800766
      9 H1           4.8120     0.4230    -0.3570 ha         1 L10       0.300132
     10 H2           1.1140    -0.3450     1.5450 hc         1 L10       0.030853
     11 H3           0.6700     0.9990     0.4790 hc         1 L10       0.030853
     12 H4           0.4490    -0.4400    -1.4420 hc         1 L10       0.002972
     13 H5           0.9200    -1.8670    -0.5030 hc         1 L10       0.002972
     14 H6          -1.5420    -1.7880    -0.6540 hc         1 L10      -0.064952
     15 H7          -1.0950    -1.4680     1.0080 hc         1 L10      -0.064952
@<TRIPOS>BOND
     1     1     2 3   
     2     1     9 1   
     3     2     3 1   
     4     3     4 1   
     5     3    10 1   
     6     3    11 1   
     7     4     5 1   
     8     4    12 1   
     9     4    13 1   
    10     5     6 1   
    11     5    14 1   
    12     5    15 1   
    13     6     7 1   
    14     6     8 1   
@<TRIPOS>SUBSTRUCTURE
     1 L10         1 TEMP              0 ****  ****    0 ROOT
