@<TRIPOS>MOLECULE
L11
   15    15     1     0     0
SMALL
resp


@<TRIPOS>ATOM
      1 C1          -0.3120    -1.2060     0.0000 ca         1 L11      -0.185821
      2 C2           1.0780    -1.2180     0.0000 ca         1 L11      -0.162339
      3 C3           1.7880    -0.0000    -0.0000 ca         1 L11      -0.044195
      4 C4           1.0780     1.2180    -0.0000 ca         1 L11      -0.162339
      5 C5          -0.3120     1.2060    -0.0000 ca         1 L11      -0.185821
      6 C6          -1.0270     0.0000    -0.0000 ca         1 L11       0.092209
      7 C7           3.2190    -0.0000     0.0000 cg         1 L11       0.380245
      8 N1           4.3850     0.0000     0.0000 n1         1 L11      -0.538624
      9 C8          -2.5840     0.0000    -0.0000 c          1 L11       0.755977
     10 O1          -3.1070     1.1410    -0.0000 o          1 L11      -0.765970
     11 O2          -3.1070    -1.1410     0.0000 o          1 L11      -0.765970
     12 H1          -0.8970    -2.1210     0.0000 ha         1 L11       0.147456
     13 H2           1.6310    -2.1540     0.0000 ha         1 L11       0.143869
     14 H3           1.6310     2.1540    -0.0000 ha         1 L11       0.143869
     15 H4          -0.8970     2.1210    -0.0000 ha         1 L11       0.147456
@<TRIPOS>BOND
     1     1     2 ar  
     2     1     6 ar  
     3     1    12 1   
     4     2     3 ar  
     5     2    13 1   
     6     3     4 ar  
     7     3     7 1   
     8     4     5 ar  
     9     4    14 1   
    10     5     6 ar  
    11     5    15 1   
    12     6     9 1   
    13     7     8 3   
    14     9    10 1   
    15     9    11 1   
@<TRIPOS>SUBSTRUCTURE
     1 L11         1 TEMP              0 ****  ****    0 ROOT
