@<TRIPOS>MOLECULE
L12
   32    31     1     0     0
SMALL
resp


@<TRIPOS>ATOM
      1 C1          -5.1490    -0.3660     0.0000 c3         1 L12      -0.254949
      2 C2          -3.8920     0.5100    -0.0000 c3         1 L12       0.150060
      3 C3          -2.5940    -0.3090     0.0000 c3         1 L12      -0.053796
      4 C4          -1.3340     0.5670     0.0000 c3         1 L12      -0.055032
      5 C5          -0.0360    -0.2670     0.0000 c3         1 L12       0.119496
      6 C6           1.1780     0.6580     0.0000 c3         1 L12      -0.160126
      7 N1           2.5590    -0.0180    -0.0000 n4         1 L12       0.180664
      8 C7           2.7420    -0.8690     1.2300 c3         1 L12      -0.373278
      9 C8           3.6090     1.0660    -0.0000 c3         1 L12      -0.373278
     10 C9           2.7420    -0.8690    -1.2310 c3         1 L12      -0.373278
     11 H1          -5.1840    -1.0110    -0.8850 hc         1 L12       0.067874
     12 H2          -5.1840    -1.0110     0.8860 hc         1 L12       0.067874
     13 H3          -3.9040     1.1700     0.8790 hc         1 L12      -0.010633
     14 H4          -3.9040     1.1700    -0.8790 hc         1 L12      -0.010633
     15 H5          -2.5800    -0.9680    -0.8800 hc         1 L12       0.018488
     16 H6          -2.5800    -0.9680     0.8800 hc         1 L12       0.018488
     17 H7          -1.3450     1.2240     0.8800 hc         1 L12       0.024251
     18 H8          -1.3450     1.2240    -0.8800 hc         1 L12       0.024251
     19 H9          -0.0330    -0.9150    -0.8830 hc         1 L12       0.010370
     20 H10         -0.0340    -0.9150     0.8840 hc         1 L12       0.010370
     21 H11          1.1740     1.3010     0.8850 hx         1 L12       0.119757
     22 H12          1.1730     1.3010    -0.8850 hx         1 L12       0.119757
     23 H13         -6.0560     0.2480    -0.0000 hc         1 L12       0.067874
     24 H14          2.5810    -0.2500     2.1150 hx         1 L12       0.185048
     25 H15          2.0270    -1.6900     1.2130 hx         1 L12       0.185048
     26 H16          3.7590    -1.2650     1.2330 hx         1 L12       0.185048
     27 H17          3.4840     1.6790     0.8930 hx         1 L12       0.185048
     28 H18          4.5970     0.6040    -0.0010 hx         1 L12       0.185048
     29 H19          3.4840     1.6790    -0.8940 hx         1 L12       0.185048
     30 H20          3.7580    -1.2660    -1.2340 hx         1 L12       0.185048
     31 H21          2.0260    -1.6900    -1.2130 hx         1 L12       0.185048
     32 H22          2.5810    -0.2500    -2.1150 hx         1 L12       0.185048
@<TRIPOS>BOND
     1     1     2 1   
     2     1    11 1   
     3     1    12 1   
     4     1    23 1   
     5     2     3 1   
     6     2    13 1   
     7     2    14 1   
     8     3     4 1   
     9     3    15 1   
    10     3    16 1   
    11     4     5 1   
    12     4    17 1   
    13     4    18 1   
    14     5     6 1   
    15     5    19 1   
    16     5    20 1   
    17     6     7 1   
    18     6    21 1   
    19     6    22 1   
    20     7     8 1   
    21     7     9 1   
    22     7    10 1   
    23     8    24 1   
    24     8    25 1   
    25     8    26 1   
    26     9    27 1   
    27     9    28 1   
    28     9    29 1   
    29    10    30 1   
    30    10    31 1   
    31    10    32 1   
@<TRIPOS>SUBSTRUCTURE
     1 L12         1 TEMP              0 ****  ****    0 ROOT
