@<TRIPOS>MOLECULE
L13
   28    30     1     0     0
SMALL
resp


@<TRIPOS>ATOM
      1 C1           0.3140     2.1320    -1.2560 c3         1 L13      -0.455567
      2 C2           1.2070     2.2110     0.0000 c3         1 L13       0.508265
      3 C3          -0.4620     0.7880    -1.2620 c3         1 L13       0.493453
      4 C4           0.5420    -0.3820    -1.2450 c3         1 L13      -0.491128
      5 C5           2.2040     1.0320     0.0000 c3         1 L13      -0.478904
      6 C6           1.4550    -0.3130     0.0000 c3         1 L13       0.606696
      7 C7           0.5420    -0.3820     1.2450 c3         1 L13      -0.491128
      8 C8           0.3140     2.1320     1.2560 c3         1 L13      -0.455567
      9 C9          -1.3320     0.7890    -0.0000 c3         1 L13      -0.618422
     10 C10         -0.4630     0.7880     1.2620 c3         1 L13       0.493453
     11 C11          2.4400    -1.5590     0.0000 c          1 L13       0.693461
     12 O1           1.8560    -2.6720     0.0010 o          1 L13      -0.786320
     13 O2           3.6660    -1.2910    -0.0010 o          1 L13      -0.786320
     14 Br1         -2.6120    -0.7750    -0.0000 br         1 L13      -0.207127
     15 H1           0.9310     2.1900    -2.1630 hc         1 L13       0.072400
     16 H2          -0.3870     2.9810    -1.2880 hc         1 L13       0.072400
     17 H3           1.7470     3.1700     0.0000 hc         1 L13      -0.068391
     18 H4          -1.1100     0.7390    -2.1480 hc         1 L13      -0.017128
     19 H5           1.1540    -0.3380    -2.1580 hc         1 L13       0.103547
     20 H6           0.0280    -1.3470    -1.2480 hc         1 L13       0.103547
     21 H7           2.8630     1.0820     0.8750 hc         1 L13       0.071822
     22 H8           2.8630     1.0810    -0.8750 hc         1 L13       0.071822
     23 H9           0.0280    -1.3470     1.2480 hc         1 L13       0.103547
     24 H10          1.1540    -0.3380     2.1590 hc         1 L13       0.103547
     25 H11         -0.3870     2.9810     1.2880 hc         1 L13       0.072400
     26 H12          0.9310     2.1900     2.1630 hc         1 L13       0.072400
     27 H13         -2.0260     1.6330    -0.0000 h1         1 L13       0.230371
     28 H14         -1.1100     0.7390     2.1480 hc         1 L13      -0.017128
@<TRIPOS>BOND
     1     1     2 1   
     2     1     3 1   
     3     1    15 1   
     4     1    16 1   
     5     2     5 1   
     6     2     8 1   
     7     2    17 1   
     8     3     4 1   
     9     3     9 1   
    10     3    18 1   
    11     4     6 1   
    12     4    19 1   
    13     4    20 1   
    14     5     6 1   
    15     5    21 1   
    16     5    22 1   
    17     6     7 1   
    18     6    11 1   
    19     7    10 1   
    20     7    23 1   
    21     7    24 1   
    22     8    10 1   
    23     8    25 1   
    24     8    26 1   
    25     9    10 1   
    26     9    14 1   
    27     9    27 1   
    28    10    28 1   
    29    11    12 1   
    30    11    13 1   
@<TRIPOS>SUBSTRUCTURE
     1 L13         1 TEMP              0 ****  ****    0 ROOT
