@<TRIPOS>MOLECULE
L14
   30    30     1     0     0
SMALL
resp


@<TRIPOS>ATOM
      1 C1           3.4020     0.0790    -0.7350 ca         1 L14      -0.106579
      2 C2           2.8330    -1.1650    -0.4470 ca         1 L14      -0.130275
      3 C3           1.6580    -1.2420     0.2990 ca         1 L14      -0.209378
      4 C4           1.0300    -0.0780     0.7650 ca         1 L14       0.134174
      5 C5           1.6160     1.1640     0.4830 ca         1 L14      -0.209378
      6 C6           2.7940     1.2430    -0.2640 ca         1 L14      -0.130275
      7 C7          -0.2490    -0.1600     1.5780 c3         1 L14      -0.221935
      8 C8          -1.4820    -0.7620     0.8880 c3         1 L14      -0.131696
      9 N1          -2.1140     0.0250    -0.2760 n4         1 L14       0.111679
     10 C9          -3.4460    -0.6150    -0.5850 c3         1 L14      -0.351135
     11 C10         -1.2590    -0.0330    -1.5210 c3         1 L14      -0.351135
     12 C11         -2.3440     1.4640     0.1030 c3         1 L14      -0.351135
     13 H1          -4.1000    -0.5150     0.2820 hx         1 L14       0.181133
     14 H2          -3.2860    -1.6700    -0.8130 hx         1 L14       0.181133
     15 H3          -3.8880    -0.1120    -1.4460 hx         1 L14       0.181133
     16 H4          -0.2970     0.4340    -1.3180 hx         1 L14       0.181133
     17 H5          -1.7830     0.4950    -2.3190 hx         1 L14       0.181133
     18 H6          -1.1130    -1.0780    -1.7970 hx         1 L14       0.181133
     19 H7          -2.9080     1.5010     1.0370 hx         1 L14       0.181133
     20 H8          -2.9120     1.9460    -0.6930 hx         1 L14       0.181133
     21 H9          -1.3820     1.9610     0.2220 hx         1 L14       0.181133
     22 H10          4.3200     0.1370    -1.3110 ha         1 L14       0.152153
     23 H11          3.3130    -2.0760    -0.7930 ha         1 L14       0.158978
     24 H12          1.2400    -2.2190     0.5370 ha         1 L14       0.151713
     25 H13          1.1650     2.0760     0.8700 ha         1 L14       0.151713
     26 H14          3.2400     2.2120    -0.4670 ha         1 L14       0.158978
     27 H15         -0.0920    -0.8210     2.4410 hc         1 L14       0.126337
     28 H16         -0.4940     0.8170     2.0080 hc         1 L14       0.126337
     29 H17         -1.2600    -1.7500     0.4780 hx         1 L14       0.145331
     30 H18         -2.2870    -0.8700     1.6210 hx         1 L14       0.145331
@<TRIPOS>BOND
     1     1     2 ar  
     2     1     6 ar  
     3     1    22 1   
     4     2     3 ar  
     5     2    23 1   
     6     3     4 ar  
     7     3    24 1   
     8     4     5 ar  
     9     4     7 1   
    10     5     6 ar  
    11     5    25 1   
    12     6    26 1   
    13     7     8 1   
    14     7    27 1   
    15     7    28 1   
    16     8     9 1   
    17     8    29 1   
    18     8    30 1   
    19     9    10 1   
    20     9    11 1   
    21     9    12 1   
    22    10    13 1   
    23    10    14 1   
    24    10    15 1   
    25    11    16 1   
    26    11    17 1   
    27    11    18 1   
    28    12    19 1   
    29    12    20 1   
    30    12    21 1   
@<TRIPOS>SUBSTRUCTURE
     1 L14         1 TEMP              0 ****  ****    0 ROOT
