@<TRIPOS>MOLECULE
L15
   16    16     1     0     0
SMALL
resp


@<TRIPOS>ATOM
      1 O1           2.4160    -1.8280     0.0010 o          1 L15      -0.473141
      2 O2           3.5030     0.0550    -0.0000 o          1 L15      -0.473141
      3 N1           2.4480    -0.5950    -0.0010 no         1 L15       0.701709
      4 C1           1.1810     0.1390    -0.0000 ca         1 L15       0.074253
      5 C2          -0.0250    -0.5650    -0.0000 ca         1 L15      -0.201396
      6 C3           1.2270     1.5380     0.0000 ca         1 L15      -0.244667
      7 C4          -1.2310     0.1400     0.0000 ca         1 L15       0.018750
      8 C5           0.0220     2.2340     0.0000 ca         1 L15      -0.132739
      9 C6          -1.1930     1.5390     0.0000 ca         1 L15      -0.138124
     10 C7          -2.5950    -0.6160    -0.0000 c          1 L15       0.776001
     11 O3          -2.4980    -1.8650     0.0010 o          1 L15      -0.769531
     12 O4          -3.6020     0.1310    -0.0010 o          1 L15      -0.769531
     13 H1          -0.0620    -1.6480    -0.0010 ha         1 L15       0.194162
     14 H2           2.1850     2.0420    -0.0000 ha         1 L15       0.165514
     15 H3           0.0330     3.3230     0.0010 ha         1 L15       0.122666
     16 H4          -2.1520     2.0500     0.0010 ha         1 L15       0.149215
@<TRIPOS>BOND
     1     1     3 1   
     2     2     3 1   
     3     3     4 1   
     4     4     5 ar  
     5     4     6 ar  
     6     5     7 ar  
     7     5    13 1   
     8     6     8 ar  
     9     6    14 1   
    10     7     9 ar  
    11     7    10 1   
    12     8     9 ar  
    13     8    15 1   
    14     9    16 1   
    15    10    11 1   
    16    10    12 1   
@<TRIPOS>SUBSTRUCTURE
     1 L15         1 TEMP              0 ****  ****    0 ROOT
