@<TRIPOS>MOLECULE
L16
   20    20     1     0     0
SMALL
resp


@<TRIPOS>ATOM
      1 C1           2.0480     0.0430    -0.1950 c          1 L16       0.899483
      2 C2          -1.9140     1.1960    -0.0430 c3         1 L16       0.134056
      3 C3          -2.4680    -0.1530    -0.5950 c3         1 L16       0.134056
      4 C4          -0.7480     0.8270     0.9110 c3         1 L16       0.005354
      5 C5          -1.6800    -1.2540     0.1510 c3         1 L16       0.005354
      6 C6          -0.3240    -0.6030     0.5020 c3         1 L16       0.314356
      7 C7           0.6880    -0.5970    -0.6620 c3         1 L16      -0.003591
      8 O1           2.1520     1.2850    -0.3880 o          1 L16      -0.840087
      9 O2           2.8410    -0.7500     0.3700 o          1 L16      -0.840087
     10 H1          -1.5480     1.8220    -0.8650 hc         1 L16      -0.070931
     11 H2          -2.6930     1.7750     0.4710 hc         1 L16      -0.070931
     12 H3          -3.5520    -0.2520    -0.4540 hc         1 L16      -0.070931
     13 H4          -2.2840    -0.2240    -1.6740 hc         1 L16      -0.070931
     14 H5           0.0990     1.5140     0.8280 hc         1 L16      -0.060352
     15 H6          -1.1040     0.8280     1.9520 hc         1 L16      -0.060352
     16 H7          -2.2120    -1.5240     1.0770 hc         1 L16      -0.060352
     17 H8          -1.5730    -2.1730    -0.4400 hc         1 L16      -0.060352
     18 H9           0.1600    -1.1250     1.3380 hc         1 L16      -0.116676
     19 H10          0.2860    -0.0330    -1.5160 hc         1 L16      -0.083543
     20 H11          0.8600    -1.6350    -0.9810 hc         1 L16      -0.083543
@<TRIPOS>BOND
     1     1     7 1   
     2     1     8 1   
     3     1     9 1   
     4     2     3 1   
     5     2     4 1   
     6     2    10 1   
     7     2    11 1   
     8     3     5 1   
     9     3    12 1   
    10     3    13 1   
    11     4     6 1   
    12     4    14 1   
    13     4    15 1   
    14     5     6 1   
    15     5    16 1   
    16     5    17 1   
    17     6     7 1   
    18     6    18 1   
    19     7    19 1   
    20     7    20 1   
@<TRIPOS>SUBSTRUCTURE
     1 L16         1 TEMP              0 ****  ****    0 ROOT
