@<TRIPOS>MOLECULE
L17
   17    16     1     0     0
SMALL
resp


@<TRIPOS>ATOM
      1 C1           0.9950    -0.5290     0.1420 ce         1 L17      -0.355101
      2 C2          -0.0640     0.2480     0.3940 c2         1 L17      -0.122411
      3 C3           2.4240     0.0060    -0.0860 c          1 L17       1.104567
      4 C4          -3.9120    -0.1350    -0.2160 c3         1 L17       0.100699
      5 C5          -1.4790    -0.2200     0.6090 c3         1 L17       0.345152
      6 C6          -2.4610     0.2970    -0.4600 c3         1 L17       0.178643
      7 O1           2.5630     1.2550    -0.0240 o          1 L17      -0.901010
      8 O2           3.2790    -0.8920    -0.3080 o          1 L17      -0.901010
      9 H1           0.8810    -1.6160     0.0890 ha         1 L17       0.093883
     10 H2           0.1250     1.3230     0.4320 ha         1 L17       0.054949
     11 H3          -4.0020    -1.2290    -0.2040 hc         1 L17      -0.054432
     12 H4          -4.5880     0.2450    -0.9930 hc         1 L17      -0.054432
     13 H5          -4.2780     0.2330     0.7520 hc         1 L17      -0.054432
     14 H6          -1.5120    -1.3190     0.6250 hc         1 L17      -0.126200
     15 H7          -1.8490     0.1130     1.5960 hc         1 L17      -0.126200
     16 H8          -2.4060     1.3940    -0.4970 hc         1 L17      -0.091332
     17 H9          -2.1270    -0.0550    -1.4440 hc         1 L17      -0.091332
@<TRIPOS>BOND
     1     1     2 2   
     2     1     3 1   
     3     1     9 1   
     4     2     5 1   
     5     2    10 1   
     6     3     7 1   
     7     3     8 1   
     8     4     6 1   
     9     4    11 1   
    10     4    12 1   
    11     4    13 1   
    12     5     6 1   
    13     5    14 1   
    14     5    15 1   
    15     6    16 1   
    16     6    17 1   
@<TRIPOS>SUBSTRUCTURE
     1 L17         1 TEMP              0 ****  ****    0 ROOT
