@<TRIPOS>MOLECULE
L18
   25    25     1     0     0
SMALL
resp


@<TRIPOS>ATOM
      1 C1          -0.7610     1.2360    -0.4340 c2         1 L18      -0.299649
      2 C2          -1.2660     0.0230    -0.1680 ce         1 L18      -0.254702
      3 C3           1.8090     0.5580     1.6870 c2         1 L18      -0.381805
      4 C4          -2.7400    -0.1530     0.2970 c          1 L18       0.957912
      5 C5           2.2960     0.1110     0.5250 c2         1 L18      -0.087533
      6 C6           0.6490     1.5040    -0.9070 c3         1 L18       0.575478
      7 C7          -0.4260    -1.2210    -0.3240 c3         1 L18       0.428864
      8 C8           0.8040    -0.9980    -1.2120 c3         1 L18      -0.078060
      9 C9           1.5930     0.2810    -0.8170 c3         1 L18       0.185750
     10 C10          3.6140    -0.6300     0.4700 c3         1 L18       0.299249
     11 O1          -3.3970     0.9030     0.4680 o          1 L18      -0.841733
     12 O2          -3.0980    -1.3530     0.4430 o          1 L18      -0.841733
     13 H1          -1.4330     2.0850    -0.3150 ha         1 L18       0.102139
     14 H2           2.3440     0.3970     2.6220 ha         1 L18       0.128775
     15 H3           0.8510     1.0660     1.7490 ha         1 L18       0.128775
     16 H4           0.6230     1.8410    -1.9590 hc         1 L18      -0.200617
     17 H5           1.0920     2.3440    -0.3510 hc         1 L18      -0.200617
     18 H6          -0.1120    -1.5770     0.6690 hc         1 L18      -0.112839
     19 H7          -1.0680    -2.0160    -0.7180 hc         1 L18      -0.112839
     20 H8           1.4680    -1.8750    -1.1940 hc         1 L18      -0.034777
     21 H9           0.4800    -0.8760    -2.2560 hc         1 L18      -0.034777
     22 H10          2.3920     0.4180    -1.5640 hc         1 L18      -0.085941
     23 H11          3.4950    -1.6260     0.0220 hc         1 L18      -0.079773
     24 H12          4.3440    -0.0950    -0.1550 hc         1 L18      -0.079773
     25 H13          4.0490    -0.7600     1.4670 hc         1 L18      -0.079773
@<TRIPOS>BOND
     1     1     2 2   
     2     1     6 1   
     3     1    13 1   
     4     2     4 1   
     5     2     7 1   
     6     3     5 2   
     7     3    14 1   
     8     3    15 1   
     9     4    11 1   
    10     4    12 1   
    11     5     9 1   
    12     5    10 1   
    13     6     9 1   
    14     6    16 1   
    15     6    17 1   
    16     7     8 1   
    17     7    18 1   
    18     7    19 1   
    19     8     9 1   
    20     8    20 1   
    21     8    21 1   
    22     9    22 1   
    23    10    23 1   
    24    10    24 1   
    25    10    25 1   
@<TRIPOS>SUBSTRUCTURE
     1 L18         1 TEMP              0 ****  ****    0 ROOT
