@<TRIPOS>MOLECULE
L19
   17    16     1     0     0
SMALL
resp


@<TRIPOS>ATOM
      1 C1          -2.2000    -1.2190     0.3520 c2         1 L19      -0.356752
      2 C2          -2.2850     0.0430    -0.0750 c2         1 L19      -0.121759
      3 C3           1.5770    -0.3930     0.0370 c          1 L19       0.888336
      4 C4          -1.1800     0.7490    -0.8250 c3         1 L19       0.268560
      5 C5           0.7100     0.5590     0.9350 c3         1 L19       0.148569
      6 C6          -0.1770     1.4930     0.0900 c3         1 L19       0.277391
      7 O1           0.9920    -1.4410    -0.3690 o          1 L19      -0.846278
      8 O2           2.7370     0.0070    -0.2230 o          1 L19      -0.846278
      9 H1          -3.0090    -1.6890     0.9130 ha         1 L19       0.143881
     10 H2          -1.2830    -1.7830     0.1760 ha         1 L19       0.143881
     11 H3          -3.1820     0.6310     0.1480 ha         1 L19       0.039609
     12 H4          -1.6230     1.4690    -1.5320 hc         1 L19      -0.085493
     13 H5          -0.6100     0.0100    -1.3950 hc         1 L19      -0.085493
     14 H6           0.0740    -0.0350     1.6040 hc         1 L19      -0.129148
     15 H7           1.3760     1.1770     1.5520 hc         1 L19      -0.129148
     16 H8           0.4800     2.1020    -0.5490 hc         1 L19      -0.154939
     17 H9          -0.7250     2.1970     0.7390 hc         1 L19      -0.154939
@<TRIPOS>BOND
     1     1     2 2   
     2     1     9 1   
     3     1    10 1   
     4     2     4 1   
     5     2    11 1   
     6     3     5 1   
     7     3     7 1   
     8     3     8 1   
     9     4     6 1   
    10     4    12 1   
    11     4    13 1   
    12     5     6 1   
    13     5    14 1   
    14     5    15 1   
    15     6    16 1   
    16     6    17 1   
@<TRIPOS>SUBSTRUCTURE
     1 L19         1 TEMP              0 ****  ****    0 ROOT
