@<TRIPOS>MOLECULE
L20
   29    28     1     0     0
SMALL
resp


@<TRIPOS>ATOM
      1 C1          -2.1050    -0.5620     0.6810 c2         1 L20      -0.295647
      2 C2          -2.9230     0.2680     0.0130 c2         1 L20      -0.149112
      3 C3           2.6600     0.8930     0.0320 c          1 L20       0.855862
      4 C4          -4.2150    -0.2360    -0.5900 c3         1 L20       0.384160
      5 C5          -2.6640     1.7380    -0.2090 c3         1 L20       0.384160
      6 C6           1.8070    -2.0460    -1.0150 c3         1 L20       0.117479
      7 C7          -0.7880    -0.2790     1.3530 c3         1 L20       0.387597
      8 C8           1.4080     0.4510    -0.8260 c3         1 L20      -0.070506
      9 C9           0.3670    -1.1820     0.8640 c3         1 L20      -0.026087
     10 C10          0.8090    -0.9540    -0.5960 c3         1 L20       0.362660
     11 O1           3.0230     2.0730    -0.1800 o          1 L20      -0.807481
     12 O2           3.1610     0.0390     0.8180 o          1 L20      -0.807481
     13 H1          -2.4210    -1.6070     0.7540 ha         1 L20       0.112413
     14 H2          -5.0850     0.3040    -0.1850 hc         1 L20      -0.108420
     15 H3          -4.3630    -1.3050    -0.4010 hc         1 L20      -0.108420
     16 H4          -4.2350    -0.0790    -1.6790 hc         1 L20      -0.108420
     17 H5          -2.6750     1.9760    -1.2830 hc         1 L20      -0.108420
     18 H6          -1.7020     2.0660     0.1900 hc         1 L20      -0.108420
     19 H7          -3.4530     2.3510     0.2520 hc         1 L20      -0.108420
     20 H8           2.7180    -1.9320    -0.4210 hc         1 L20      -0.077782
     21 H9           2.0700    -1.9470    -2.0780 hc         1 L20      -0.077782
     22 H10          1.3940    -3.0550    -0.8660 hc         1 L20      -0.077782
     23 H11         -0.9150    -0.4510     2.4350 hc         1 L20      -0.087890
     24 H12         -0.5000     0.7720     1.2490 hc         1 L20      -0.087890
     25 H13          0.6370     1.2220    -0.6860 hc         1 L20      -0.035662
     26 H14          1.7000     0.5400    -1.8840 hc         1 L20      -0.035662
     27 H15          1.2480    -1.0090     1.4900 hc         1 L20      -0.057389
     28 H16          0.0590    -2.2340     0.9920 hc         1 L20      -0.057389
     29 H17         -0.0860    -1.0490    -1.2370 hc         1 L20      -0.202266
@<TRIPOS>BOND
     1     1     2 2   
     2     1     7 1   
     3     1    13 1   
     4     2     4 1   
     5     2     5 1   
     6     3     8 1   
     7     3    11 1   
     8     3    12 1   
     9     4    14 1   
    10     4    15 1   
    11     4    16 1   
    12     5    17 1   
    13     5    18 1   
    14     5    19 1   
    15     6    10 1   
    16     6    20 1   
    17     6    21 1   
    18     6    22 1   
    19     7     9 1   
    20     7    23 1   
    21     7    24 1   
    22     8    10 1   
    23     8    25 1   
    24     8    26 1   
    25     9    10 1   
    26     9    27 1   
    27     9    28 1   
    28    10    29 1   
@<TRIPOS>SUBSTRUCTURE
     1 L20         1 TEMP              0 ****  ****    0 ROOT
