@<TRIPOS>MOLECULE
L21
   17    16     1     0     0
SMALL
resp


@<TRIPOS>ATOM
      1 C1          -2.5420    -0.7040    -0.2260 c2         1 L21      -0.306851
      2 C2          -2.0700     0.5440    -0.2840 c2         1 L21      -0.192915
      3 C3           0.9370    -0.8400     0.0010 c          1 L21       0.893415
      4 C4           1.6390     1.5930     0.1110 c3         1 L21       0.295529
      5 C5          -0.8270     1.0340     0.4240 c3         1 L21       0.457185
      6 C6           0.4900     0.6560    -0.2900 c3         1 L21       0.034115
      7 O1           0.3440    -1.4380     0.9390 o          1 L21      -0.841117
      8 O2           1.8770    -1.2390    -0.7270 o          1 L21      -0.841117
      9 H1          -3.4280    -1.0060    -0.7840 ha         1 L21       0.116641
     10 H2          -2.0100    -1.4570     0.3500 ha         1 L21       0.116641
     11 H3          -2.5880     1.2730    -0.9160 ha         1 L21       0.075944
     12 H4           1.7970     1.5700     1.1990 hc         1 L21      -0.120848
     13 H5           1.4500     2.6410    -0.1740 hc         1 L21      -0.120848
     14 H6           2.5600     1.2530    -0.3710 hc         1 L21      -0.120848
     15 H7          -0.7700     0.5780     1.4180 hc         1 L21      -0.153563
     16 H8          -0.8970     2.1270     0.5440 hc         1 L21      -0.153563
     17 H9           0.3590     0.7350    -1.3790 hc         1 L21      -0.137800
@<TRIPOS>BOND
     1     1     2 2   
     2     1     9 1   
     3     1    10 1   
     4     2     5 1   
     5     2    11 1   
     6     3     6 1   
     7     3     7 1   
     8     3     8 1   
     9     4     6 1   
    10     4    12 1   
    11     4    13 1   
    12     4    14 1   
    13     5     6 1   
    14     5    15 1   
    15     5    16 1   
    16     6    17 1   
@<TRIPOS>SUBSTRUCTURE
     1 L21         1 TEMP              0 ****  ****    0 ROOT
