@<TRIPOS>MOLECULE
L22
   19    18     1     0     0
SMALL
resp


@<TRIPOS>ATOM
      1 C1           1.8690    -0.1730    -0.1270 c          1 L22       0.939135
      2 C2          -1.8030     1.3340    -0.6850 c3         1 L22      -0.011288
      3 C3          -2.5950    -0.9620    -0.0110 c3         1 L22      -0.011288
      4 C4           0.8960     0.6110     0.8390 c3         1 L22       0.011250
      5 C5          -0.4840    -0.0270     1.0360 c3         1 L22       0.129974
      6 C6          -1.3670    -0.0650    -0.2270 c3         1 L22       0.318718
      7 O1           2.9370     0.4290    -0.3880 o          1 L22      -0.858050
      8 O2           1.4750    -1.3100    -0.5080 o          1 L22      -0.858050
      9 H1          -2.4150     1.8310     0.0840 hc         1 L22      -0.039294
     10 H2          -2.4070     1.2840    -1.6030 hc         1 L22      -0.039294
     11 H3          -0.9410     1.9760    -0.8900 hc         1 L22      -0.039294
     12 H4          -3.2290    -0.5810     0.8040 hc         1 L22      -0.039294
     13 H5          -2.2920    -1.9820     0.2530 hc         1 L22      -0.039294
     14 H6          -3.2200    -1.0200    -0.9140 hc         1 L22      -0.039294
     15 H7           0.8170     1.6470     0.4790 hc         1 L22      -0.074508
     16 H8           1.4010     0.6870     1.8140 hc         1 L22      -0.074508
     17 H9          -1.0410     0.4790     1.8470 hc         1 L22      -0.088843
     18 H10         -0.3180    -1.0640     1.3530 hc         1 L22      -0.088843
     19 H11         -0.7400    -0.5190    -1.0030 hc         1 L22      -0.097935
@<TRIPOS>BOND
     1     1     4 1   
     2     1     7 1   
     3     1     8 1   
     4     2     6 1   
     5     2     9 1   
     6     2    10 1   
     7     2    11 1   
     8     3     6 1   
     9     3    12 1   
    10     3    13 1   
    11     3    14 1   
    12     4     5 1   
    13     4    15 1   
    14     4    16 1   
    15     5     6 1   
    16     5    17 1   
    17     5    18 1   
    18     6    19 1   
@<TRIPOS>SUBSTRUCTURE
     1 L22         1 TEMP              0 ****  ****    0 ROOT
