@<TRIPOS>MOLECULE
L23
   20    19     1     0     0
SMALL
resp


@<TRIPOS>ATOM
      1 C1          -2.6370     0.6020     0.2400 c2         1 L23      -0.372213
      2 C2          -2.0660    -0.5950     0.0770 c2         1 L23      -0.079859
      3 C3           0.7630     1.0320     0.0290 c          1 L23       0.839748
      4 C4           1.6570    -1.0910    -0.9570 c3         1 L23       0.227360
      5 C5           0.6240    -1.1940     1.3240 c3         1 L23       0.227360
      6 C6          -0.8320    -0.8560    -0.7560 c3         1 L23       0.124261
      7 C7           0.5230    -0.5490    -0.0640 c3         1 L23       0.090302
      8 O1           1.5730     1.3930     0.9160 o          1 L23      -0.820454
      9 O2           0.1690     1.7280    -0.8360 o          1 L23      -0.820454
     10 H1          -3.5190     0.7320     0.8660 ha         1 L23       0.138383
     11 H2          -2.1930     1.4840    -0.2160 ha         1 L23       0.138383
     12 H3          -2.5010    -1.4570     0.5900 ha         1 L23       0.052855
     13 H4           1.6090    -2.1870    -1.0680 hc         1 L23      -0.105510
     14 H5           1.6040    -0.6430    -1.9580 hc         1 L23      -0.105510
     15 H6           2.6280    -0.8290    -0.5230 hc         1 L23      -0.105510
     16 H7           0.5920    -2.2950     1.2690 hc         1 L23      -0.105510
     17 H8          -0.1960    -0.8640     1.9730 hc         1 L23      -0.105510
     18 H9           1.5580    -0.8800     1.7960 hc         1 L23      -0.105510
     19 H10         -0.8590    -0.2200    -1.6460 hc         1 L23      -0.056305
     20 H11         -0.8460    -1.9100    -1.0820 hc         1 L23      -0.056305
@<TRIPOS>BOND
     1     1     2 2   
     2     1    10 1   
     3     1    11 1   
     4     2     6 1   
     5     2    12 1   
     6     3     7 1   
     7     3     8 1   
     8     3     9 1   
     9     4     7 1   
    10     4    13 1   
    11     4    14 1   
    12     4    15 1   
    13     5     7 1   
    14     5    16 1   
    15     5    17 1   
    16     5    18 1   
    17     6     7 1   
    18     6    19 1   
    19     6    20 1   
@<TRIPOS>SUBSTRUCTURE
     1 L23         1 TEMP              0 ****  ****    0 ROOT
