@<TRIPOS>MOLECULE
L24
   19    18     1     0     0
SMALL
resp


@<TRIPOS>ATOM
      1 C1          -2.0860    -0.3400     0.0160 c          1 L24       0.790045
      2 C2           3.4740    -0.7140    -0.3880 c3         1 L24      -0.244796
      3 C3          -1.3340     1.0330    -0.1900 c3         1 L24       0.159894
      4 C4           2.4780     0.2040     0.3310 c3         1 L24       0.215926
      5 C5           0.0720     1.1060     0.4160 c3         1 L24      -0.105329
      6 C6           1.0790     0.1940    -0.2950 c3         1 L24      -0.039285
      7 O1          -3.1830    -0.4250    -0.5850 o          1 L24      -0.805287
      8 O2          -1.5140    -1.1790     0.7640 o          1 L24      -0.805287
      9 H1           3.6010    -0.4150    -1.4370 hc         1 L24       0.038560
     10 H2           4.4660    -0.6980     0.0850 hc         1 L24       0.038560
     11 H3           3.1190    -1.7520    -0.3860 hc         1 L24       0.038560
     12 H4          -1.9680     1.8200     0.2460 hc         1 L24      -0.101169
     13 H5          -1.3020     1.2490    -1.2690 hc         1 L24      -0.101169
     14 H6           2.4010    -0.1000     1.3850 hc         1 L24      -0.054986
     15 H7           2.8750     1.2320     0.3410 hc         1 L24      -0.054986
     16 H8           0.0030     0.7870     1.4640 hc         1 L24       0.000440
     17 H9           0.4510     2.1440     0.4090 hc         1 L24       0.000440
     18 H10          0.6610    -0.8190    -0.2640 hc         1 L24       0.014934
     19 H11          1.1570     0.4860    -1.3560 hc         1 L24       0.014934
@<TRIPOS>BOND
     1     1     3 1   
     2     1     7 1   
     3     1     8 1   
     4     2     4 1   
     5     2     9 1   
     6     2    10 1   
     7     2    11 1   
     8     3     5 1   
     9     3    12 1   
    10     3    13 1   
    11     4     6 1   
    12     4    14 1   
    13     4    15 1   
    14     5     6 1   
    15     5    16 1   
    16     5    17 1   
    17     6    18 1   
    18     6    19 1   
@<TRIPOS>SUBSTRUCTURE
     1 L24         1 TEMP              0 ****  ****    0 ROOT
