@<TRIPOS>MOLECULE
L25
   14    14     1     0     0
SMALL
resp


@<TRIPOS>ATOM
      1 C1           0.4410    -1.2020     0.0000 ca         1 L25      -0.217723
      2 C2           0.4410     1.2020     0.0000 ca         1 L25      -0.217723
      3 C3          -0.9550    -1.2170     0.0000 ca         1 L25      -0.091271
      4 C4          -0.9550     1.2170     0.0000 ca         1 L25      -0.091271
      5 C5           1.1580    -0.0000     0.0000 ca         1 L25       0.058102
      6 C6          -1.6350     0.0000     0.0000 ca         1 L25       0.003749
      7 C7           2.7140     0.0000     0.0000 c          1 L25       0.772737
      8 O1           3.2410     1.1400    -0.0000 o          1 L25      -0.776851
      9 O2           3.2410    -1.1400    -0.0000 o          1 L25      -0.776851
     10 Cl1         -3.4190     0.0000    -0.0000 cl         1 L25      -0.204886
     11 H1           1.0210    -2.1210     0.0000 ha         1 L25       0.154946
     12 H2           1.0210     2.1210     0.0000 ha         1 L25       0.154946
     13 H3          -1.5120    -2.1510    -0.0000 ha         1 L25       0.116049
     14 H4          -1.5120     2.1510     0.0000 ha         1 L25       0.116049
@<TRIPOS>BOND
     1     1     3 ar  
     2     1     5 ar  
     3     1    11 1   
     4     2     4 ar  
     5     2     5 ar  
     6     2    12 1   
     7     3     6 ar  
     8     3    13 1   
     9     4     6 ar  
    10     4    14 1   
    11     5     7 1   
    12     6    10 1   
    13     7     8 1   
    14     7     9 1   
@<TRIPOS>SUBSTRUCTURE
     1 L25         1 TEMP              0 ****  ****    0 ROOT
