@<TRIPOS>MOLECULE
L26
   25    25     1     0     0
SMALL
resp


@<TRIPOS>ATOM
      1 C1          -0.8410     1.1950     0.0910 c2         1 L26      -0.364573
      2 C2          -1.5290     0.0510    -0.0140 ce         1 L26      -0.044872
      3 C3           3.6960     0.0740    -1.2120 c2         1 L26      -0.632690
      4 C4          -3.0850     0.0420    -0.0230 c          1 L26       0.804579
      5 C5           2.8540     0.0110    -0.1730 c2         1 L26       0.078505
      6 C6           0.6650     1.3030     0.0910 c3         1 L26       0.022325
      7 C7          -0.8260    -1.2830    -0.1180 c3         1 L26       0.063185
      8 C8           0.6500    -1.2100     0.2980 c3         1 L26      -0.291205
      9 C9           1.3490    -0.0070    -0.3730 c3         1 L26       0.112892
     10 C10          3.3840    -0.0500     1.2420 c3         1 L26      -0.144452
     11 O1          -3.6460     1.1640     0.0330 o          1 L26      -0.795792
     12 O2          -3.5950    -1.1090    -0.0850 o          1 L26      -0.795792
     13 H1          -1.4240     2.1110     0.1790 ha         1 L26       0.151398
     14 H2           4.7770     0.0940    -1.0780 ha         1 L26       0.198882
     15 H3           3.3340     0.1080    -2.2380 ha         1 L26       0.198882
     16 H4           0.9960     2.1260    -0.5620 hc         1 L26       0.024663
     17 H5           1.0240     1.5770     1.0990 hc         1 L26       0.024663
     18 H6          -1.3810    -2.0090     0.4850 hc         1 L26       0.013386
     19 H7          -0.9060    -1.6600    -1.1500 hc         1 L26       0.013386
     20 H8           0.7130    -1.0990     1.3910 hc         1 L26       0.084047
     21 H9           1.1770    -2.1420     0.0430 hc         1 L26       0.084047
     22 H10          1.1650    -0.0940    -1.4540 hc         1 L26       0.044391
     23 H11          2.9740     0.7580     1.8610 hc         1 L26       0.050048
     24 H12          3.0990    -0.9900     1.7310 hc         1 L26       0.050048
     25 H13          4.4770     0.0260     1.2630 hc         1 L26       0.050048
@<TRIPOS>BOND
     1     1     2 2   
     2     1     6 1   
     3     1    13 1   
     4     2     4 1   
     5     2     7 1   
     6     3     5 2   
     7     3    14 1   
     8     3    15 1   
     9     4    11 1   
    10     4    12 1   
    11     5     9 1   
    12     5    10 1   
    13     6     9 1   
    14     6    16 1   
    15     6    17 1   
    16     7     8 1   
    17     7    18 1   
    18     7    19 1   
    19     8     9 1   
    20     8    20 1   
    21     8    21 1   
    22     9    22 1   
    23    10    23 1   
    24    10    24 1   
    25    10    25 1   
@<TRIPOS>SUBSTRUCTURE
     1 L26         1 TEMP              0 ****  ****    0 ROOT
