@<TRIPOS>MOLECULE
L27
   29    28     1     0     0
SMALL
resp


@<TRIPOS>ATOM
      1 C1          -2.1130     1.0730     0.2090 c2         1 L27      -0.520145
      2 C2          -2.8570    -0.0180    -0.0390 c2         1 L27       0.293390
      3 C3           1.8560    -1.5630     0.0340 c          1 L27       0.827623
      4 C4          -4.2650     0.1140    -0.5750 c3         1 L27      -0.207064
      5 C5          -2.3880    -1.4390     0.1780 c3         1 L27      -0.207064
      6 C6           2.6480     2.3400    -0.1370 c3         1 L27      -0.589852
      7 C7          -0.6990     1.1050     0.7270 c3         1 L27      -0.109207
      8 C8           2.5120    -0.1890    -0.3670 c3         1 L27       0.115152
      9 C9           0.3680     1.2170    -0.3830 c3         1 L27      -0.341760
     10 C10          1.8200     1.0780     0.1600 c3         1 L27       0.410424
     11 O1           2.3390    -2.5600    -0.5450 o          1 L27      -0.807345
     12 O2           0.9360    -1.5170     0.9050 o          1 L27      -0.807345
     13 H1          -2.5630     2.0450    -0.0160 ha         1 L27       0.169859
     14 H2          -4.3710    -0.3890    -1.5480 hc         1 L27       0.044100
     15 H3          -4.5610     1.1620    -0.7010 hc         1 L27       0.044100
     16 H4          -4.9940    -0.3660     0.0970 hc         1 L27       0.044100
     17 H5          -2.9820    -1.9250     0.9690 hc         1 L27       0.044100
     18 H6          -1.3270    -1.5250     0.4370 hc         1 L27       0.044100
     19 H7          -2.5560    -2.0330    -0.7330 hc         1 L27       0.044100
     20 H8           2.7640     2.4910    -1.2200 hc         1 L27       0.108485
     21 H9           3.6560     2.2690     0.2920 hc         1 L27       0.108485
     22 H10          2.1730     3.2450     0.2710 hc         1 L27       0.108485
     23 H11         -0.4520     0.1950     1.2800 hc         1 L27       0.116397
     24 H12         -0.5880     1.9580     1.4170 hc         1 L27       0.116397
     25 H13          3.5560    -0.2120    -0.0160 hc         1 L27      -0.093049
     26 H14          2.5730    -0.1550    -1.4660 hc         1 L27      -0.093049
     27 H15          0.1760     0.4210    -1.1120 hc         1 L27       0.103574
     28 H16          0.2450     2.1690    -0.9240 hc         1 L27       0.103574
     29 H17          1.7550     0.9670     1.2510 hc         1 L27      -0.070567
@<TRIPOS>BOND
     1     1     2 2   
     2     1     7 1   
     3     1    13 1   
     4     2     4 1   
     5     2     5 1   
     6     3     8 1   
     7     3    11 1   
     8     3    12 1   
     9     4    14 1   
    10     4    15 1   
    11     4    16 1   
    12     5    17 1   
    13     5    18 1   
    14     5    19 1   
    15     6    10 1   
    16     6    20 1   
    17     6    21 1   
    18     6    22 1   
    19     7     9 1   
    20     7    23 1   
    21     7    24 1   
    22     8    10 1   
    23     8    25 1   
    24     8    26 1   
    25     9    10 1   
    26     9    27 1   
    27     9    28 1   
    28    10    29 1   
@<TRIPOS>SUBSTRUCTURE
     1 L27         1 TEMP              0 ****  ****    0 ROOT
