@<TRIPOS>MOLECULE
L28
   30    30     1     0     0
SMALL
resp


@<TRIPOS>ATOM
      1 C1           3.9780    -0.0000     0.4310 ca         1 L28      -0.100341
      2 C2           3.3140     1.2080     0.2140 ca         1 L28      -0.139238
      3 C3           3.3130    -1.2090     0.2130 ca         1 L28      -0.139238
      4 C4           1.9870     1.2080    -0.2180 ca         1 L28      -0.189757
      5 C5           1.9860    -1.2080    -0.2190 ca         1 L28      -0.189757
      6 C6           1.3130     0.0000    -0.4390 ca         1 L28       0.089120
      7 C7          -2.9810     1.2310    -0.6090 c3         1 L28      -0.393867
      8 C8          -3.2230    -0.0010     1.4970 c3         1 L28      -0.393867
      9 C9          -2.9800    -1.2300    -0.6100 c3         1 L28      -0.393867
     10 C10         -0.1430     0.0010    -0.8770 c3         1 L28      -0.147055
     11 C11         -1.0280     0.0000     0.3760 c3         1 L28      -0.048498
     12 N1          -2.5510    -0.0000     0.1460 n4         1 L28       0.251661
     13 H1           5.0120    -0.0010     0.7630 ha         1 L28       0.150879
     14 H2           3.8300     2.1500     0.3720 ha         1 L28       0.159090
     15 H3           3.8280    -2.1510     0.3710 ha         1 L28       0.159090
     16 H4           1.4810     2.1540    -0.4000 ha         1 L28       0.147259
     17 H5           1.4800    -2.1530    -0.4010 ha         1 L28       0.147259
     18 H6          -2.5460     1.2130    -1.6080 hx         1 L28       0.184923
     19 H7          -4.0700     1.2340    -0.6810 hx         1 L28       0.184923
     20 H8          -2.9170    -0.8940     2.0440 hx         1 L28       0.184923
     21 H9          -2.9180     0.8920     2.0440 hx         1 L28       0.184923
     22 H10         -4.3050    -0.0010     1.3560 hx         1 L28       0.184923
     23 H11         -2.6400    -2.1140    -0.0690 hx         1 L28       0.184923
     24 H12         -4.0690    -1.2340    -0.6820 hx         1 L28       0.184923
     25 H13         -2.5460    -1.2120    -1.6090 hx         1 L28       0.184923
     26 H14         -0.3420    -0.8830    -1.4920 hc         1 L28       0.087553
     27 H15         -0.3410     0.8860    -1.4910 hc         1 L28       0.087553
     28 H16         -0.8240     0.8850     0.9850 hx         1 L28       0.095855
     29 H17         -0.8240    -0.8850     0.9840 hx         1 L28       0.095855
     30 H18         -2.6410     2.1140    -0.0670 hx         1 L28       0.184923
@<TRIPOS>BOND
     1     1     2 ar  
     2     1     3 ar  
     3     1    13 1   
     4     2     4 ar  
     5     2    14 1   
     6     3     5 ar  
     7     3    15 1   
     8     4     6 ar  
     9     4    16 1   
    10     5     6 ar  
    11     5    17 1   
    12     6    10 1   
    13     7    12 1   
    14     7    18 1   
    15     7    19 1   
    16     7    30 1   
    17     8    12 1   
    18     8    20 1   
    19     8    21 1   
    20     8    22 1   
    21     9    12 1   
    22     9    23 1   
    23     9    24 1   
    24     9    25 1   
    25    10    11 1   
    26    10    26 1   
    27    10    27 1   
    28    11    12 1   
    29    11    28 1   
    30    11    29 1   
@<TRIPOS>SUBSTRUCTURE
     1 L28         1 TEMP              0 ****  ****    0 ROOT
