@<TRIPOS>MOLECULE
L29
   32    31     1     0     0
SMALL
resp


@<TRIPOS>ATOM
      1 C1           5.1490    -0.3660     0.0000 c3         1 L29      -0.254856
      2 C2          -2.7410    -0.8700    -1.2300 c3         1 L29      -0.376008
      3 C3          -2.7420    -0.8690     1.2310 c3         1 L29      -0.376008
      4 C4          -3.6090     1.0660    -0.0010 c3         1 L29      -0.376008
      5 C5           3.8920     0.5100    -0.0000 c3         1 L29       0.150516
      6 C6           2.5940    -0.3090    -0.0000 c3         1 L29      -0.056086
      7 C7           1.3340     0.5670     0.0000 c3         1 L29      -0.054719
      8 C8           0.0360    -0.2670    -0.0000 c3         1 L29       0.120015
      9 C9          -1.1780     0.6580     0.0000 c3         1 L29      -0.166002
     10 N1          -2.5590    -0.0180    -0.0000 n4         1 L29       0.191086
     11 H1           5.1840    -1.0110     0.8860 hc         1 L29       0.067865
     12 H2           5.1840    -1.0120    -0.8850 hc         1 L29       0.067865
     13 H3           6.0550     0.2470    -0.0000 hc         1 L29       0.067865
     14 H4          -2.5800    -0.2520    -2.1150 hx         1 L29       0.185164
     15 H5          -2.0260    -1.6910    -1.2120 hx         1 L29       0.185164
     16 H6          -3.7580    -1.2660    -1.2330 hx         1 L29       0.185164
     17 H7          -2.5810    -0.2490     2.1150 hx         1 L29       0.185164
     18 H8          -3.7590    -1.2650     1.2340 hx         1 L29       0.185164
     19 H9          -2.0260    -1.6890     1.2140 hx         1 L29       0.185164
     20 H10         -3.4840     1.6800     0.8920 hx         1 L29       0.185164
     21 H11         -3.4840     1.6790    -0.8950 hx         1 L29       0.185164
     22 H12         -4.5970     0.6040    -0.0000 hx         1 L29       0.185164
     23 H13          3.9040     1.1700    -0.8790 hc         1 L29      -0.010791
     24 H14          3.9040     1.1700     0.8790 hc         1 L29      -0.010791
     25 H15          2.5800    -0.9680    -0.8800 hc         1 L29       0.019269
     26 H16          2.5800    -0.9680     0.8800 hc         1 L29       0.019269
     27 H17          1.3450     1.2240     0.8800 hc         1 L29       0.024527
     28 H18          1.3450     1.2240    -0.8800 hc         1 L29       0.024527
     29 H19          0.0330    -0.9150     0.8840 hc         1 L29       0.010393
     30 H20          0.0330    -0.9150    -0.8840 hc         1 L29       0.010393
     31 H21         -1.1730     1.3010     0.8850 hx         1 L29       0.120600
     32 H22         -1.1730     1.3010    -0.8850 hx         1 L29       0.120600
@<TRIPOS>BOND
     1     1     5 1   
     2     1    11 1   
     3     1    12 1   
     4     1    13 1   
     5     2    10 1   
     6     2    14 1   
     7     2    15 1   
     8     2    16 1   
     9     3    10 1   
    10     3    17 1   
    11     3    18 1   
    12     3    19 1   
    13     4    10 1   
    14     4    20 1   
    15     4    21 1   
    16     4    22 1   
    17     5     6 1   
    18     5    23 1   
    19     5    24 1   
    20     6     7 1   
    21     6    25 1   
    22     6    26 1   
    23     7     8 1   
    24     7    27 1   
    25     7    28 1   
    26     8     9 1   
    27     8    29 1   
    28     8    30 1   
    29     9    10 1   
    30     9    31 1   
    31     9    32 1   
@<TRIPOS>SUBSTRUCTURE
     1 L29         1 TEMP              0 ****  ****    0 ROOT
