@<TRIPOS>MOLECULE
L30
   33    33     1     0     0
SMALL
resp


@<TRIPOS>ATOM
      1 C1          -1.7450    -1.2550    -0.1770 c3         1 L30      -0.150970
      2 C2          -1.7460     1.2550    -0.1760 c3         1 L30      -0.150970
      3 C3          -0.2570    -1.2630     0.2310 c3         1 L30      -0.232592
      4 C4          -0.2570     1.2640     0.2300 c3         1 L30      -0.232592
      5 C5          -2.4860    -0.0000     0.3110 c3         1 L30       0.314238
      6 C6           0.4370     0.0000    -0.2990 c3         1 L30       0.059673
      7 C7          -3.9530    -0.0000    -0.1310 c3         1 L30      -0.464667
      8 C8           2.6160     1.2220    -0.6650 c3         1 L30      -0.335828
      9 C9           2.6180    -1.2100    -0.6880 c3         1 L30      -0.335828
     10 C10          2.3270    -0.0130     1.4300 c3         1 L30      -0.335828
     11 N1           1.9900    -0.0000    -0.0380 n4         1 L30      -0.002391
     12 H1          -1.8230    -1.3230    -1.2720 hc         1 L30       0.070873
     13 H2          -2.2180    -2.1590     0.2230 hc         1 L30       0.070873
     14 H3          -2.2180     2.1580     0.2240 hc         1 L30       0.070873
     15 H4          -1.8240     1.3240    -1.2710 hc         1 L30       0.070873
     16 H5          -0.1920    -1.2970     1.3250 hc         1 L30       0.113222
     17 H6           0.2060    -2.1740    -0.1570 hc         1 L30       0.113222
     18 H7           0.2050     2.1750    -0.1610 hc         1 L30       0.113222
     19 H8          -0.1900     1.3000     1.3250 hc         1 L30       0.113222
     20 H9          -2.4590    -0.0010     1.4120 hc         1 L30      -0.000007
     21 H10          0.3880     0.0000    -1.3950 hx         1 L30       0.133963
     22 H11         -4.0370     0.0000    -1.2250 hc         1 L30       0.120117
     23 H12         -4.4790     0.8840     0.2440 hc         1 L30       0.120117
     24 H13         -4.4790    -0.8850     0.2440 hc         1 L30       0.120117
     25 H14          3.7010     1.1330    -0.5910 hx         1 L30       0.181897
     26 H15          2.3200     1.2740    -1.7140 hx         1 L30       0.181897
     27 H16          2.2890     2.1160    -0.1380 hx         1 L30       0.181897
     28 H17          3.7020    -1.1260    -0.6010 hx         1 L30       0.181897
     29 H18          2.2830    -2.1140    -0.1840 hx         1 L30       0.181897
     30 H19          2.3300    -1.2360    -1.7400 hx         1 L30       0.181897
     31 H20          3.4140    -0.0060     1.5340 hx         1 L30       0.181897
     32 H21          1.9080     0.8720     1.9060 hx         1 L30       0.181897
     33 H22          1.9210    -0.9150     1.8870 hx         1 L30       0.181897
@<TRIPOS>BOND
     1     1     3 1   
     2     1     5 1   
     3     1    12 1   
     4     1    13 1   
     5     2     4 1   
     6     2     5 1   
     7     2    14 1   
     8     2    15 1   
     9     3     6 1   
    10     3    16 1   
    11     3    17 1   
    12     4     6 1   
    13     4    18 1   
    14     4    19 1   
    15     5     7 1   
    16     5    20 1   
    17     6    11 1   
    18     6    21 1   
    19     7    22 1   
    20     7    23 1   
    21     7    24 1   
    22     8    11 1   
    23     8    25 1   
    24     8    26 1   
    25     8    27 1   
    26     9    11 1   
    27     9    28 1   
    28     9    29 1   
    29     9    30 1   
    30    10    11 1   
    31    10    31 1   
    32    10    32 1   
    33    10    33 1   
@<TRIPOS>SUBSTRUCTURE
     1 L30         1 TEMP              0 ****  ****    0 ROOT
