@<TRIPOS>MOLECULE
L31
   38    40     1     0     0
SMALL
resp


@<TRIPOS>ATOM
      1 C1           2.1430     1.1570    -0.8850 c3         1 L31      -0.303422
      2 C2           2.1440    -1.3440    -0.5590 c3         1 L31      -0.303422
      3 C3           2.1430     0.1880     1.4440 c3         1 L31      -0.303422
      4 C4           0.0820    -0.1760    -1.4440 c3         1 L31      -0.445465
      5 C5           0.0810     1.3380     0.5700 c3         1 L31      -0.445465
      6 C6           0.0810    -1.1630     0.8740 c3         1 L31      -0.445465
      7 C7           1.6330    -0.1870    -1.4370 c3         1 L31       0.258548
      8 C8           1.6320     1.3380     0.5560 c3         1 L31       0.258548
      9 C9           1.6320    -1.1510     0.8800 c3         1 L31       0.258548
     10 C10         -0.4360    -0.0000    -0.0000 c3         1 L31       0.736469
     11 C11         -2.6140    -1.3760    -0.2750 c3         1 L31      -0.351474
     12 C12         -2.6130     0.9270    -1.0540 c3         1 L31      -0.351474
     13 C13         -2.6130     0.4500     1.3300 c3         1 L31      -0.351474
     14 N1          -2.0600    -0.0000    -0.0000 n4         1 L31      -0.089842
     15 H1           3.2390     1.1760    -0.8980 hc         1 L31       0.087518
     16 H2           1.8040     1.9860    -1.5200 hc         1 L31       0.087518
     17 H3           1.8050    -2.3090    -0.9600 hc         1 L31       0.087518
     18 H4           3.2400    -1.3650    -0.5690 hc         1 L31       0.087518
     19 H5           3.2390     0.1900     1.4670 hc         1 L31       0.087518
     20 H6           1.8050     0.3230     2.4800 hc         1 L31       0.087518
     21 H7          -0.2530     0.6480    -2.0840 hc         1 L31       0.104390
     22 H8          -0.2820    -1.1110    -1.8860 hc         1 L31       0.104390
     23 H9          -0.2530     1.4800     1.6030 hc         1 L31       0.104390
     24 H10         -0.2830     2.1890    -0.0190 hc         1 L31       0.104390
     25 H11         -0.2530    -2.1280     0.4800 hc         1 L31       0.104390
     26 H12         -0.2830    -1.0780     1.9050 hc         1 L31       0.104390
     27 H13          1.9700    -0.3210    -2.4700 hc         1 L31       0.031806
     28 H14          1.9700     2.3000     0.9570 hc         1 L31       0.031806
     29 H15          1.9700    -1.9790     1.5140 hc         1 L31       0.031806
     30 H16         -3.6900    -1.2860    -0.4280 hx         1 L31       0.181328
     31 H17         -2.1530    -1.7860    -1.1730 hx         1 L31       0.181328
     32 H18         -2.4230    -2.0260     0.5760 hx         1 L31       0.181328
     33 H19         -3.6900     1.0140    -0.9000 hx         1 L31       0.181328
     34 H20         -2.1530     1.9090    -0.9600 hx         1 L31       0.181328
     35 H21         -2.4220     0.5140    -2.0430 hx         1 L31       0.181328
     36 H22         -3.6900     0.2730     1.3280 hx         1 L31       0.181328
     37 H23         -2.1530    -0.1240     2.1330 hx         1 L31       0.181328
     38 H24         -2.4210     1.5120     1.4670 hx         1 L31       0.181328
@<TRIPOS>BOND
     1     1     7 1   
     2     1     8 1   
     3     1    15 1   
     4     1    16 1   
     5     2     7 1   
     6     2     9 1   
     7     2    17 1   
     8     2    18 1   
     9     3     8 1   
    10     3     9 1   
    11     3    19 1   
    12     3    20 1   
    13     4     7 1   
    14     4    10 1   
    15     4    21 1   
    16     4    22 1   
    17     5     8 1   
    18     5    10 1   
    19     5    23 1   
    20     5    24 1   
    21     6     9 1   
    22     6    10 1   
    23     6    25 1   
    24     6    26 1   
    25     7    27 1   
    26     8    28 1   
    27     9    29 1   
    28    10    14 1   
    29    11    14 1   
    30    11    30 1   
    31    11    31 1   
    32    11    32 1   
    33    12    14 1   
    34    12    33 1   
    35    12    34 1   
    36    12    35 1   
    37    13    14 1   
    38    13    36 1   
    39    13    37 1   
    40    13    38 1   
@<TRIPOS>SUBSTRUCTURE
     1 L31         1 TEMP              0 ****  ****    0 ROOT
