@<TRIPOS>MOLECULE
L32
   21    22     1     0     0
SMALL
resp


@<TRIPOS>ATOM
      1 C1           3.4740    -1.1400     0.0000 ca         1 L32      -0.195710
      2 C2           3.7570     0.2470     0.0000 ca         1 L32      -0.161463
      3 C3           2.1630    -1.5730     0.0000 ca         1 L32      -0.241917
      4 C4           2.7310     1.1680    -0.0000 ca         1 L32      -0.253883
      5 C5          -0.2770    -1.0610     0.0000 ca         1 L32      -0.384025
      6 C6           0.2820     1.6520    -0.0000 ca         1 L32      -0.596590
      7 C7           1.0830    -0.6540     0.0000 ca         1 L32       0.202943
      8 C8           1.3720     0.7510    -0.0000 ca         1 L32       0.215860
      9 C9          -1.3460    -0.1890    -0.0000 ca         1 L32      -0.019272
     10 C10         -1.0350     1.2120    -0.0000 ca         1 L32       0.399269
     11 C11         -2.7940    -0.8120     0.0000 c          1 L32       0.808186
     12 O1          -2.7980    -2.0680    -0.0020 o          1 L32      -0.779405
     13 O2          -3.7440    -0.0010     0.0020 o          1 L32      -0.779405
     14 O3          -2.0500     2.1270    -0.0010 oh         1 L32      -0.541616
     15 H1           4.2900    -1.8590     0.0000 ha         1 L32       0.129880
     16 H2           4.7920     0.5860     0.0000 ha         1 L32       0.129767
     17 H3           1.9330    -2.6370     0.0000 ha         1 L32       0.157346
     18 H4           2.9510     2.2350    -0.0000 ha         1 L32       0.138179
     19 H5          -0.5430    -2.1160     0.0000 ha         1 L32       0.195348
     20 H6           0.4890     2.7250    -0.0000 ha         1 L32       0.190213
     21 H7          -1.6310     3.0040    -0.0010 ho         1 L32       0.386294
@<TRIPOS>BOND
     1     1     2 ar  
     2     1     3 ar  
     3     1    15 1   
     4     2     4 ar  
     5     2    16 1   
     6     3     7 ar  
     7     3    17 1   
     8     4     8 ar  
     9     4    18 1   
    10     5     7 ar  
    11     5     9 ar  
    12     5    19 1   
    13     6     8 ar  
    14     6    10 ar  
    15     6    20 1   
    16     7     8 ar  
    17     9    10 ar  
    18     9    11 1   
    19    10    14 1   
    20    11    12 1   
    21    11    13 1   
    22    14    21 1   
@<TRIPOS>SUBSTRUCTURE
     1 L32         1 TEMP              0 ****  ****    0 ROOT
