@<TRIPOS>MOLECULE
L34
   20    20     1     0     0
SMALL
resp


@<TRIPOS>ATOM
      1 C1           2.2300    -0.0770     0.0730 c          1 L34       0.851295
      2 C2          -2.8230     0.3390     0.2030 c3         1 L34      -0.033201
      3 C3          -2.3150    -1.0840    -0.1940 c3         1 L34      -0.033201
      4 C4          -1.5680     1.2530     0.1700 c3         1 L34      -0.164480
      5 C5          -0.8370    -0.8960    -0.5930 c3         1 L34      -0.164480
      6 C6          -0.3600     0.2960     0.2530 c3         1 L34       0.411784
      7 C7           0.9900     0.8760    -0.1610 c3         1 L34      -0.254564
      8 O1           1.9990    -1.1370     0.7160 o          1 L34      -0.812922
      9 O2           3.3080     0.3520    -0.4000 o          1 L34      -0.812922
     10 H1          -3.6070     0.6990    -0.4760 hc         1 L34      -0.002166
     11 H2          -3.2700     0.3220     1.2060 hc         1 L34      -0.002166
     12 H3          -2.3860    -1.7590     0.6680 hc         1 L34      -0.002166
     13 H4          -2.9210    -1.5330    -0.9930 hc         1 L34      -0.002166
     14 H5          -1.5290     1.8000    -0.7830 hc         1 L34       0.023816
     15 H6          -1.5750     2.0090     0.9670 hc         1 L34       0.023816
     16 H7          -0.2040    -1.7680    -0.4150 hc         1 L34       0.023816
     17 H8          -0.7640    -0.6350    -1.6610 hc         1 L34       0.023816
     18 H9          -0.2550    -0.0660     1.2860 hc         1 L34      -0.048956
     19 H10          1.1840     1.8080     0.3940 hc         1 L34      -0.012477
     20 H11          0.9720     1.1650    -1.2240 hc         1 L34      -0.012477
@<TRIPOS>BOND
     1     1     7 1   
     2     1     8 1   
     3     1     9 1   
     4     2     3 1   
     5     2     4 1   
     6     2    10 1   
     7     2    11 1   
     8     3     5 1   
     9     3    12 1   
    10     3    13 1   
    11     4     6 1   
    12     4    14 1   
    13     4    15 1   
    14     5     6 1   
    15     5    16 1   
    16     5    17 1   
    17     6     7 1   
    18     6    18 1   
    19     7    19 1   
    20     7    20 1   
@<TRIPOS>SUBSTRUCTURE
     1 L34         1 TEMP              0 ****  ****    0 ROOT
