@<TRIPOS>MOLECULE
L35
   17    18     1     0     0
SMALL
resp


@<TRIPOS>ATOM
      1 C1           0.8370     1.4140    -0.0000 ca         1 L35      -0.209554
      2 C2          -0.5230     1.7710    -0.0000 ca         1 L35      -0.355986
      3 C3           0.3050    -0.9560    -0.0000 ca         1 L35      -0.375798
      4 C4           1.2590     0.0810    -0.0000 ca         1 L35      -0.026188
      5 C5          -1.4350     0.7310    -0.0000 ca         1 L35       0.292677
      6 C6          -1.0270    -0.5950    -0.0000 ca         1 L35       0.316653
      7 C7           2.7770    -0.2720     0.0000 c          1 L35       0.855967
      8 C8          -3.2760    -0.5530     0.0010 c3         1 L35       0.414294
      9 O1           3.0330    -1.5010     0.0000 o          1 L35      -0.804046
     10 O2           3.5510     0.7170     0.0000 o          1 L35      -0.804046
     11 O3          -2.8260     0.8010    -0.0000 os         1 L35      -0.469518
     12 O4          -2.1520    -1.4230    -0.0010 os         1 L35      -0.469711
     13 H1           1.6190     2.1680     0.0000 ha         1 L35       0.175857
     14 H2          -0.8520     2.8070    -0.0000 ha         1 L35       0.190058
     15 H3           0.6580    -1.9820    -0.0000 ha         1 L35       0.225952
     16 H4          -3.8830    -0.7340     0.9030 h2         1 L35       0.021694
     17 H5          -3.8870    -0.7350    -0.8980 h2         1 L35       0.021694
@<TRIPOS>BOND
     1     1     2 ar  
     2     1     4 ar  
     3     1    13 1   
     4     2     5 ar  
     5     2    14 1   
     6     3     4 ar  
     7     3     6 ar  
     8     3    15 1   
     9     4     7 1   
    10     5     6 ar  
    11     5    11 1   
    12     6    12 1   
    13     7     9 1   
    14     7    10 1   
    15     8    11 1   
    16     8    12 1   
    17     8    16 1   
    18     8    17 1   
@<TRIPOS>SUBSTRUCTURE
     1 L35         1 TEMP              0 ****  ****    0 ROOT
