@<TRIPOS>MOLECULE
OA0
  184   204     1     0     0
SMALL
resp


@<TRIPOS>ATOM
      1 C1           2.9310    -1.4660     3.2450 ca         1 OA0      -0.087198
      2 C2           3.9130     0.8750     2.0160 ca         1 OA0       0.188873
      3 C3           2.7430    -0.1890     3.8060 ca         1 OA0      -0.258509
      4 C4           3.6390    -1.5190     2.0300 ca         1 OA0       0.188873
      5 C5           4.1430    -0.3680     1.4410 ca         1 OA0      -0.200962
      6 C6           3.2010     1.0060     3.2190 ca         1 OA0      -0.087198
      7 O1           4.3900     1.9750     1.3030 os         1 OA0      -0.406125
      8 C7           2.9210     2.4090     3.7910 c3         1 OA0       0.224535
      9 C8           3.4050     2.6380     0.5350 c3         1 OA0       0.483834
     10 O2           2.9160     3.7850     1.2030 os         1 OA0      -0.406125
     11 C9           1.7100     3.5880     1.8800 ca         1 OA0       0.188873
     12 C10          1.6380     2.9590     3.1350 ca         1 OA0      -0.087198
     13 C11          0.3480     2.8040     3.6770 ca         1 OA0      -0.258509
     14 C12          0.5670     4.0170     1.2170 ca         1 OA0      -0.200962
     15 C13         -0.8380     3.2040     3.0320 ca         1 OA0      -0.087198
     16 C14         -0.6910     3.8070     1.7680 ca         1 OA0       0.188873
     17 O3          -1.7730     4.2150     0.9800 os         1 OA0      -0.406125
     18 C15         -2.2450     2.9920     3.6210 c3         1 OA0       0.224535
     19 C16         -2.8180     1.6560     3.1110 ca         1 OA0      -0.087198
     20 C17         -3.4830     1.6500     1.8740 ca         1 OA0       0.188873
     21 C18         -2.4870     3.1590     0.3610 c3         1 OA0       0.483834
     22 O4          -3.6370     2.8130     1.1150 os         1 OA0      -0.406125
     23 O5           3.8500    -2.7060     1.3180 os         1 OA0      -0.406125
     24 C19          2.3770    -2.7630     3.8620 c3         1 OA0       0.224535
     25 C20          0.9790    -3.0390     3.2770 ca         1 OA0      -0.087198
     26 O6           2.0320    -4.1730     1.3820 os         1 OA0      -0.406125
     27 C21          0.8940    -3.7170     2.0500 ca         1 OA0       0.188873
     28 C22         -3.9640     0.4790     1.3080 ca         1 OA0      -0.200962
     29 C23         -3.7480    -0.7340     1.9460 ca         1 OA0       0.188873
     30 C24         -0.3220    -3.9290     1.4160 ca         1 OA0      -0.200962
     31 C25         -1.4960    -3.4360     1.9720 ca         1 OA0       0.188873
     32 O7          -4.1670    -1.8750     1.2610 os         1 OA0      -0.406125
     33 O8          -2.6550    -3.6540     1.2190 os         1 OA0      -0.406125
     34 C26         -3.1380    -2.5160     0.5260 c3         1 OA0       0.483834
     35 C27         -0.2350    -2.5880     3.8270 ca         1 OA0      -0.258509
     36 C28         -1.4890    -2.7530     3.2040 ca         1 OA0      -0.087198
     37 C29         -2.6570     0.4070     3.7440 ca         1 OA0      -0.258509
     38 C30         -2.8130    -2.2080     3.7760 c3         1 OA0       0.224535
     39 C31         -3.0890    -0.8120     3.1850 ca         1 OA0      -0.087198
     40 C32          2.7050    -3.1770     0.6300 c3         1 OA0       0.483834
     41 C33         -2.3670     3.2600     5.1430 c3         1 OA0       0.052723
     42 C34         -3.8120     3.5000     5.6250 c3         1 OA0      -0.062857
     43 C35         -3.9870     4.5620     6.7880 c          1 OA0       0.844865
     44 O9          -2.9910     5.2790     7.0660 o          1 OA0      -0.840549
     45 C36          2.9560     2.4670     5.3350 c3         1 OA0       0.052723
     46 C37          3.0960     3.8880     5.9160 c3         1 OA0      -0.062857
     47 C38          4.5640     4.4620     5.9850 c          1 OA0       0.844865
     48 O10          4.6850     5.5190     6.6630 o          1 OA0      -0.840549
     49 C39          2.5260    -2.8700     5.4010 c3         1 OA0       0.052723
     50 C40          2.4310    -4.3100     5.9450 c3         1 OA0      -0.062857
     51 C41          3.3780    -4.6520     7.1690 c          1 OA0       0.844865
     52 O11          3.1590    -5.7770     7.6950 o          1 OA0      -0.840549
     53 C42         -2.9790    -2.3520     5.3100 c3         1 OA0       0.052723
     54 C43         -4.4360    -2.2140     5.7980 c3         1 OA0      -0.062857
     55 C44         -4.8700    -3.1920     6.9680 c          1 OA0       0.844865
     56 O12         -4.0980    -4.1490     7.2320 o          1 OA0      -0.840549
     57 C45          3.9670     3.0140    -0.8330 ca         1 OA0       0.224633
     58 C46          4.7980     3.5290    -3.4490 ca         1 OA0      -0.620807
     59 C47          3.4060     4.0840    -1.5410 ca         1 OA0      -0.561205
     60 C48          4.9550     2.2110    -1.4190 ca         1 OA0      -0.561205
     61 C49          5.3670     2.4780    -2.7260 ca         1 OA0       0.600588
     62 C50          3.8300     4.3380    -2.8480 ca         1 OA0       0.600588
     63 C51          3.0720    -3.7150    -0.7510 ca         1 OA0       0.224633
     64 C52          3.4390    -4.4740    -3.4120 ca         1 OA0      -0.620807
     65 C53          2.3510    -4.7940    -1.2710 ca         1 OA0      -0.561205
     66 C54          4.0000    -3.0210    -1.5490 ca         1 OA0      -0.561205
     67 C55          4.1690    -3.3980    -2.8830 ca         1 OA0       0.600588
     68 C56          2.5490    -5.1700    -2.6030 ca         1 OA0       0.600588
     69 C57         -3.6320    -2.8860    -0.8730 ca         1 OA0       0.224633
     70 C58         -4.2990    -3.2760    -3.5510 ca         1 OA0      -0.620807
     71 C59         -4.7060    -2.1790    -1.4290 ca         1 OA0      -0.561205
     72 C60         -2.9000    -3.8090    -1.6430 ca         1 OA0      -0.561205
     73 C61         -3.2330    -3.9900    -2.9880 ca         1 OA0       0.600588
     74 C62         -5.0400    -2.3910    -2.7720 ca         1 OA0       0.600588
     75 C63         -2.8750     3.5210    -1.0730 ca         1 OA0       0.224633
     76 C64         -3.4050     3.8350    -3.7920 ca         1 OA0      -0.620807
     77 C65         -4.0880     3.0610    -1.5990 ca         1 OA0      -0.561205
     78 C66         -1.9300     4.1600    -1.8960 ca         1 OA0      -0.561205
     79 C67         -2.1960     4.2990    -3.2600 ca         1 OA0       0.600588
     80 C68         -4.3500     3.2360    -2.9630 ca         1 OA0       0.600588
     81 O13          4.9980    -2.7970    -3.8010 os         1 OA0      -0.423731
     82 O14         -2.5970    -4.8140    -3.8870 os         1 OA0      -0.423731
     83 O15         -6.1830    -1.8970    -3.3660 os         1 OA0      -0.423731
     84 O16          6.4270     1.8410    -3.3410 os         1 OA0      -0.423731
     85 O17          3.4400     5.4400    -3.5800 os         1 OA0      -0.423731
     86 O18         -5.5780     2.9940    -3.5440 os         1 OA0      -0.423731
     87 O19         -1.3450     4.8300    -4.2030 os         1 OA0      -0.423731
     88 C69         -1.6540    -5.8080    -3.6090 ca         1 OA0       0.412809
     89 C70          0.2420    -7.8310    -3.5690 ca         1 OA0      -0.417870
     90 C71         -0.3250    -5.4760    -3.3040 ca         1 OA0      -0.449053
     91 C72         -2.0340    -7.1210    -3.8850 ca         1 OA0      -0.417870
     92 C73         -1.0810    -8.1480    -3.8790 ca         1 OA0       0.113446
     93 C74          0.6170    -6.5130    -3.2910 ca         1 OA0       0.412809
     94 O20          1.9850    -6.3190    -3.1300 os         1 OA0      -0.423731
     95 C75          6.6470     0.4670    -3.3560 ca         1 OA0       0.412809
     96 C76          7.3000    -2.2100    -3.7520 ca         1 OA0      -0.417870
     97 C77          7.9770     0.0890    -3.5640 ca         1 OA0      -0.417870
     98 C78          5.6200    -0.4870    -3.3400 ca         1 OA0      -0.449053
     99 C79          5.9750    -1.8290    -3.5460 ca         1 OA0       0.412809
    100 C80          8.3180    -1.2480    -3.7760 ca         1 OA0       0.113446
    101 C81         -6.5970    -0.5710    -3.4330 ca         1 OA0       0.412809
    102 C82         -7.6410     1.9600    -3.8960 ca         1 OA0      -0.417870
    103 C83         -7.9350    -0.4210    -3.8090 ca         1 OA0      -0.417870
    104 C84         -5.7510     0.5390    -3.2760 ca         1 OA0      -0.449053
    105 C85         -6.3040     1.8070    -3.5200 ca         1 OA0       0.412809
    106 C86         -8.4690     0.8460    -4.0560 ca         1 OA0       0.113446
    107 C87         -9.9390     1.0090    -4.5500 c          1 OA0       0.818503
    108 O21        -10.5900    -0.0600    -4.6890 o          1 OA0      -0.810495
    109 C88          0.6730     9.3080    -4.7820 c          1 OA0       0.818503
    110 O22          1.7620     9.9400    -4.8240 o          1 OA0      -0.810495
    111 C89          9.7860    -1.6460    -4.1200 c          1 OA0       0.818503
    112 O23          9.9780    -2.8700    -4.3420 o          1 OA0      -0.810495
    113 O24         -5.1440     4.5990     7.2870 o          1 OA0      -0.840549
    114 O25         -5.9870    -2.9190     7.4840 o          1 OA0      -0.840549
    115 O26          4.2630    -3.8080     7.4670 o          1 OA0      -0.840549
    116 C90         -1.4700    -9.6030    -4.2880 c          1 OA0       0.818503
    117 O27         -0.5290   -10.4390    -4.2840 o          1 OA0      -0.810495
    118 O28         -0.4820     9.7030    -5.0890 o          1 OA0      -0.810495
    119 O29        -10.3120     2.1920    -4.7720 o          1 OA0      -0.810495
    120 O30         -2.6780    -9.7760    -4.5970 o          1 OA0      -0.810495
    121 O31         10.6110    -0.6960    -4.1610 o          1 OA0      -0.810495
    122 O32          5.4530     3.8200     5.3670 o          1 OA0      -0.840549
    123 C91          2.1330     5.9080    -3.6890 ca         1 OA0       0.412809
    124 C92         -0.3590     7.0020    -4.2770 ca         1 OA0      -0.417870
    125 C93          1.0070     5.0750    -3.6590 ca         1 OA0      -0.449053
    126 C94          2.0170     7.2640    -4.0050 ca         1 OA0      -0.417870
    127 C95          0.7750     7.8230    -4.3150 ca         1 OA0       0.113446
    128 C96         -0.2370     5.6490    -3.9620 ca         1 OA0       0.412809
    129 H1           2.1990    -0.1220     4.7440 ha         1 OA0       0.177142
    130 H2           4.6910    -0.4370     0.5070 ha         1 OA0       0.110789
    131 H3           3.7510     3.0410     3.4610 hc         1 OA0       0.058864
    132 H4           2.5660     1.9470     0.3750 h2         1 OA0       0.007921
    133 H5           0.2550     2.3350     4.6520 ha         1 OA0       0.177142
    134 H6           0.6540     4.4950     0.2470 ha         1 OA0       0.110789
    135 H7          -2.8620     3.7600     3.1420 hc         1 OA0       0.058864
    136 H8          -1.8300     2.2810     0.3150 h2         1 OA0       0.007921
    137 H9           3.0130    -3.5560     3.4540 hc         1 OA0       0.058864
    138 H10         -4.4570     0.5050     0.3420 ha         1 OA0       0.110789
    139 H11         -0.3530    -4.4520     0.4660 ha         1 OA0       0.110789
    140 H12         -2.3080    -1.8070     0.4080 h2         1 OA0       0.007921
    141 H13         -0.2060    -2.0680     4.7800 ha         1 OA0       0.177142
    142 H14         -2.1460     0.3800     4.7030 ha         1 OA0       0.177142
    143 H15         -3.5850    -2.8520     3.3410 hc         1 OA0       0.058864
    144 H16          2.0190    -2.3330     0.4860 h2         1 OA0       0.007921
    145 H17         -1.8970     2.4560     5.7270 hc         1 OA0      -0.011845
    146 H18         -1.8060     4.1720     5.3810 hc         1 OA0      -0.011845
    147 H19         -4.4200     3.8750     4.7860 hc         1 OA0      -0.037167
    148 H20         -4.2990     2.5690     5.9370 hc         1 OA0      -0.037167
    149 H21          3.8330     1.8930     5.6500 hc         1 OA0      -0.011845
    150 H22          2.0720     1.9680     5.7580 hc         1 OA0      -0.011845
    151 H23          2.4760     4.6020     5.3530 hc         1 OA0      -0.037167
    152 H24          2.6940     3.9070     6.9380 hc         1 OA0      -0.037167
    153 H25          3.5200    -2.5000     5.6790 hc         1 OA0      -0.011845
    154 H26          1.8060    -2.2180     5.9160 hc         1 OA0      -0.011845
    155 H27          1.4050    -4.5760     6.2250 hc         1 OA0      -0.037167
    156 H28          2.7060    -5.0210     5.1500 hc         1 OA0      -0.037167
    157 H29         -2.6530    -3.3580     5.6000 hc         1 OA0      -0.011845
    158 H30         -2.3250    -1.6510     5.8470 hc         1 OA0      -0.011845
    159 H31         -4.6690    -1.1880     6.1070 hc         1 OA0      -0.037167
    160 H32         -5.1240    -2.4250     4.9640 hc         1 OA0      -0.037167
    161 H33          5.1320     3.7400    -4.4590 ha         1 OA0       0.215720
    162 H34          2.6750     4.7270    -1.0650 ha         1 OA0       0.238817
    163 H35          5.4160     1.4150    -0.8480 ha         1 OA0       0.238817
    164 H36          3.5900    -4.7690    -4.4440 ha         1 OA0       0.215720
    165 H37          1.6630    -5.3430    -0.6420 ha         1 OA0       0.238817
    166 H38          4.5690    -2.1990    -1.1320 ha         1 OA0       0.238817
    167 H39         -4.5660    -3.4410    -4.5890 ha         1 OA0       0.215720
    168 H40         -5.2850    -1.5010    -0.8160 ha         1 OA0       0.238817
    169 H41         -2.0870    -4.3670    -1.1950 ha         1 OA0       0.238817
    170 H42         -3.6140     3.9680    -4.8480 ha         1 OA0       0.215720
    171 H43         -4.8230     2.6030    -0.9490 ha         1 OA0       0.238817
    172 H44         -1.0010     4.5260    -1.4760 ha         1 OA0       0.238817
    173 H45          0.9840    -8.6220    -3.5840 ha         1 OA0       0.191285
    174 H46         -0.0330    -4.4440    -3.1440 ha         1 OA0       0.186838
    175 H47         -3.0570    -7.3580    -4.1570 ha         1 OA0       0.191285
    176 H48          7.5570    -3.2450    -3.9500 ha         1 OA0       0.191285
    177 H49          8.7600     0.8390    -3.6080 ha         1 OA0       0.191285
    178 H50          4.5800    -0.1970    -3.2380 ha         1 OA0       0.186838
    179 H51         -8.0430     2.9460    -4.1000 ha         1 OA0       0.191285
    180 H52         -8.5650    -1.2920    -3.9460 ha         1 OA0       0.191285
    181 H53         -4.7040     0.4200    -3.0180 ha         1 OA0       0.186838
    182 H54         -1.3200     7.4250    -4.5510 ha         1 OA0       0.191285
    183 H55          1.0940     4.0100    -3.4740 ha         1 OA0       0.186838
    184 H56          2.8980     7.8950    -4.0610 ha         1 OA0       0.191285
@<TRIPOS>BOND
     1     1     3 ar  
     2     1     4 ar  
     3     1    24 1   
     4     2     5 ar  
     5     2     6 ar  
     6     2     7 1   
     7     3     6 ar  
     8     3   129 1   
     9     4     5 ar  
    10     4    23 1   
    11     5   130 1   
    12     6     8 1   
    13     7     9 1   
    14     8    12 1   
    15     8    45 1   
    16     8   131 1   
    17     9    10 1   
    18     9    57 1   
    19     9   132 1   
    20    10    11 1   
    21    11    12 ar  
    22    11    14 ar  
    23    12    13 ar  
    24    13    15 ar  
    25    13   133 1   
    26    14    16 ar  
    27    14   134 1   
    28    15    16 ar  
    29    15    18 1   
    30    16    17 1   
    31    17    21 1   
    32    18    19 1   
    33    18    41 1   
    34    18   135 1   
    35    19    20 ar  
    36    19    37 ar  
    37    20    22 1   
    38    20    28 ar  
    39    21    22 1   
    40    21    75 1   
    41    21   136 1   
    42    23    40 1   
    43    24    25 1   
    44    24    49 1   
    45    24   137 1   
    46    25    27 ar  
    47    25    35 ar  
    48    26    27 1   
    49    26    40 1   
    50    27    30 ar  
    51    28    29 ar  
    52    28   138 1   
    53    29    32 1   
    54    29    39 ar  
    55    30    31 ar  
    56    30   139 1   
    57    31    33 1   
    58    31    36 ar  
    59    32    34 1   
    60    33    34 1   
    61    34    69 1   
    62    34   140 1   
    63    35    36 ar  
    64    35   141 1   
    65    36    38 1   
    66    37    39 ar  
    67    37   142 1   
    68    38    39 1   
    69    38    53 1   
    70    38   143 1   
    71    40    63 1   
    72    40   144 1   
    73    41    42 1   
    74    41   145 1   
    75    41   146 1   
    76    42    43 1   
    77    42   147 1   
    78    42   148 1   
    79    43    44 1   
    80    43   113 1   
    81    45    46 1   
    82    45   149 1   
    83    45   150 1   
    84    46    47 1   
    85    46   151 1   
    86    46   152 1   
    87    47    48 1   
    88    47   122 1   
    89    49    50 1   
    90    49   153 1   
    91    49   154 1   
    92    50    51 1   
    93    50   155 1   
    94    50   156 1   
    95    51    52 1   
    96    51   115 1   
    97    53    54 1   
    98    53   157 1   
    99    53   158 1   
   100    54    55 1   
   101    54   159 1   
   102    54   160 1   
   103    55    56 1   
   104    55   114 1   
   105    57    59 ar  
   106    57    60 ar  
   107    58    61 ar  
   108    58    62 ar  
   109    58   161 1   
   110    59    62 ar  
   111    59   162 1   
   112    60    61 ar  
   113    60   163 1   
   114    61    84 1   
   115    62    85 1   
   116    63    65 ar  
   117    63    66 ar  
   118    64    67 ar  
   119    64    68 ar  
   120    64   164 1   
   121    65    68 ar  
   122    65   165 1   
   123    66    67 ar  
   124    66   166 1   
   125    67    81 1   
   126    68    94 1   
   127    69    71 ar  
   128    69    72 ar  
   129    70    73 ar  
   130    70    74 ar  
   131    70   167 1   
   132    71    74 ar  
   133    71   168 1   
   134    72    73 ar  
   135    72   169 1   
   136    73    82 1   
   137    74    83 1   
   138    75    77 ar  
   139    75    78 ar  
   140    76    79 ar  
   141    76    80 ar  
   142    76   170 1   
   143    77    80 ar  
   144    77   171 1   
   145    78    79 ar  
   146    78   172 1   
   147    79    87 1   
   148    80    86 1   
   149    81    99 1   
   150    82    88 1   
   151    83   101 1   
   152    84    95 1   
   153    85   123 1   
   154    86   105 1   
   155    87   128 1   
   156    88    90 ar  
   157    88    91 ar  
   158    89    92 ar  
   159    89    93 ar  
   160    89   173 1   
   161    90    93 ar  
   162    90   174 1   
   163    91    92 ar  
   164    91   175 1   
   165    92   116 1   
   166    93    94 1   
   167    95    97 ar  
   168    95    98 ar  
   169    96    99 ar  
   170    96   100 ar  
   171    96   176 1   
   172    97   100 ar  
   173    97   177 1   
   174    98    99 ar  
   175    98   178 1   
   176   100   111 1   
   177   101   103 ar  
   178   101   104 ar  
   179   102   105 ar  
   180   102   106 ar  
   181   102   179 1   
   182   103   106 ar  
   183   103   180 1   
   184   104   105 ar  
   185   104   181 1   
   186   106   107 1   
   187   107   108 1   
   188   107   119 1   
   189   109   110 1   
   190   109   118 1   
   191   109   127 1   
   192   111   112 1   
   193   111   121 1   
   194   116   117 1   
   195   116   120 1   
   196   123   125 ar  
   197   123   126 ar  
   198   124   127 ar  
   199   124   128 ar  
   200   124   182 1   
   201   125   128 ar  
   202   125   183 1   
   203   126   127 ar  
   204   126   184 1   
@<TRIPOS>SUBSTRUCTURE
     1 OA0         1 TEMP              0 ****  ****    0 ROOT
