@<TRIPOS>MOLECULE
TEM
  196   216     1     0     0
SMALL
resp


@<TRIPOS>ATOM
      1 C1           2.8470    -1.2320     3.2910 ca         1 TEM      -0.139226
      2 C2           3.5870     1.2150     2.1020 ca         1 TEM       0.252499
      3 C3           2.5000     0.0080     3.8600 ca         1 TEM      -0.193789
      4 C4           3.5950    -1.1910     2.1020 ca         1 TEM       0.252499
      5 C5           3.9740     0.0130     1.5240 ca         1 TEM      -0.301981
      6 C6           2.8390     1.2510     3.2920 ca         1 TEM      -0.139226
      7 O1           3.9680     2.3750     1.4210 os         1 TEM      -0.429002
      8 C7           2.4050     2.6180     3.8530 c3         1 TEM       0.199512
      9 C8           2.9490     2.9650     0.6330 c3         1 TEM       0.584891
     10 O2           2.3180     4.0320     1.3170 os         1 TEM      -0.429002
     11 C9           1.1170     3.6920     1.9490 ca         1 TEM       0.252499
     12 C10          1.0790     3.0280     3.1870 ca         1 TEM      -0.139226
     13 C11         -0.1980     2.7110     3.6900 ca         1 TEM      -0.193789
     14 C12         -0.0460     4.0260     1.2670 ca         1 TEM      -0.301981
     15 C13         -1.4010     3.0000     3.0160 ca         1 TEM      -0.139226
     16 C14         -1.2840     3.6690     1.7850 ca         1 TEM       0.252499
     17 O3          -2.3950     4.0010     1.0040 os         1 TEM      -0.429002
     18 C15         -2.8020     2.5990     3.5140 c3         1 TEM       0.199512
     19 C16         -3.1790     1.2330     2.9100 ca         1 TEM      -0.139226
     20 C17         -3.7620     1.1910     1.6310 ca         1 TEM       0.252499
     21 C18         -2.9360     2.9320     0.2490 c3         1 TEM       0.584891
     22 O4          -4.0500     2.3480     0.9000 os         1 TEM      -0.429002
     23 O5           3.9840    -2.3490     1.4210 os         1 TEM      -0.429002
     24 C19          2.4230    -2.6020     3.8530 c3         1 TEM       0.199512
     25 C20          1.0990    -3.0200     3.1860 ca         1 TEM      -0.139226
     26 O6           2.3450    -4.0160     1.3160 os         1 TEM      -0.429002
     27 C21          1.1420    -3.6840     1.9480 ca         1 TEM       0.252499
     28 C22         -4.0640    -0.0140     1.0100 ca         1 TEM      -0.301981
     29 C23         -3.7550    -1.2170     1.6310 ca         1 TEM       0.252499
     30 C24         -0.0190    -4.0250     1.2670 ca         1 TEM      -0.301981
     31 C25         -1.2600    -3.6770     1.7840 ca         1 TEM       0.252499
     32 O7          -4.0340    -2.3750     0.9000 os         1 TEM      -0.429002
     33 O8          -2.3690    -4.0170     1.0040 os         1 TEM      -0.429002
     34 C26         -2.9170    -2.9510     0.2480 c3         1 TEM       0.584891
     35 C27         -0.1800    -2.7120     3.6900 ca         1 TEM      -0.193789
     36 C28         -1.3810    -3.0090     3.0160 ca         1 TEM      -0.139226
     37 C29         -2.9120    -0.0100     3.5170 ca         1 TEM      -0.193789
     38 C30         -2.7850    -2.6180     3.5130 c3         1 TEM       0.199512
     39 C31         -3.1700    -1.2540     2.9100 ca         1 TEM      -0.139226
     40 C32          2.9690    -2.9440     0.6330 c3         1 TEM       0.584891
     41 C33         -3.0410     2.7740     5.0340 c3         1 TEM      -0.015633
     42 C34         -4.5300     2.7850     5.4390 c3         1 TEM      -0.116558
     43 C35         -4.9400     3.8500     6.5390 c          1 TEM       0.836699
     44 O9          -4.0920     4.7320     6.8290 o          1 TEM      -0.837391
     45 C36          2.4830     2.7590     5.3940 c3         1 TEM      -0.015633
     46 C37          2.4590     4.2200     5.8920 c3         1 TEM      -0.116558
     47 C38          3.4390     4.5590     7.0910 c          1 TEM       0.836699
     48 O10          4.3150     3.7030     7.3780 o          1 TEM      -0.837391
     49 C39          2.5010    -2.7430     5.3930 c3         1 TEM      -0.015633
     50 C40          2.4870    -4.2040     5.8910 c3         1 TEM      -0.116558
     51 C41          3.4700    -4.5370     7.0890 c          1 TEM       0.836699
     52 O11          4.3410    -3.6760     7.3750 o          1 TEM      -0.837391
     53 C42         -3.0230    -2.7950     5.0340 c3         1 TEM      -0.015633
     54 C43         -4.5120    -2.8160     5.4380 c3         1 TEM      -0.116558
     55 C44         -4.9140    -3.8810     6.5410 c          1 TEM       0.836699
     56 O12         -4.0600    -4.7580     6.8320 o          1 TEM      -0.837391
     57 C45          3.5170     3.4420    -0.7030 ca         1 TEM       0.014268
     58 C46          4.3000     4.0470    -3.3070 ca         1 TEM      -0.583174
     59 C47          2.8520     4.4590    -1.4060 ca         1 TEM      -0.357912
     60 C48          4.5840     2.7410    -1.2840 ca         1 TEM      -0.357912
     61 C49          4.9650     3.0470    -2.5940 ca         1 TEM       0.503061
     62 C50          3.2490     4.7490    -2.7150 ca         1 TEM       0.503061
     63 C51          3.5400    -3.4180    -0.7040 ca         1 TEM       0.014268
     64 C52          4.3260    -4.0180    -3.3080 ca         1 TEM      -0.583174
     65 C53          2.8820    -4.4390    -1.4060 ca         1 TEM      -0.357912
     66 C54          4.6020    -2.7090    -1.2850 ca         1 TEM      -0.357912
     67 C55          4.9840    -3.0140    -2.5950 ca         1 TEM       0.503061
     68 C56          3.2800    -4.7270    -2.7150 ca         1 TEM       0.503061
     69 C57         -3.3000    -3.4320    -1.1510 ca         1 TEM       0.014268
     70 C58         -3.7300    -4.0470    -3.8340 ca         1 TEM      -0.583174
     71 C59         -4.2790    -2.7310    -1.8730 ca         1 TEM      -0.357912
     72 C60         -2.5490    -4.4520    -1.7560 ca         1 TEM      -0.357912
     73 C61         -2.7690    -4.7480    -3.1040 ca         1 TEM       0.503061
     74 C62         -4.4820    -3.0430    -3.2200 ca         1 TEM       0.503061
     75 C63         -3.3230     3.4100    -1.1510 ca         1 TEM       0.014268
     76 C64         -3.7570     4.0220    -3.8340 ca         1 TEM      -0.583174
     77 C65         -4.2970     2.7030    -1.8720 ca         1 TEM      -0.357912
     78 C66         -2.5790     4.4340    -1.7560 ca         1 TEM      -0.357912
     79 C67         -2.8000     4.7290    -3.1040 ca         1 TEM       0.503061
     80 C68         -4.5030     3.0130    -3.2200 ca         1 TEM       0.503061
     81 O13          6.0130    -2.4130    -3.2860 os         1 TEM      -0.374156
     82 O14         -2.1220    -5.7290    -3.8230 os         1 TEM      -0.374156
     83 O15         -5.4110    -2.4520    -4.0470 os         1 TEM      -0.374156
     84 O16          5.9980     2.4530    -3.2850 os         1 TEM      -0.374156
     85 O17          2.6980     5.7230    -3.5180 os         1 TEM      -0.374156
     86 O18         -5.4290     2.4160    -4.0460 os         1 TEM      -0.374156
     87 O19         -2.1590     5.7140    -3.8230 os         1 TEM      -0.374156
     88 C69         -0.8990    -6.3200    -3.4830 ca         1 TEM       0.189082
     89 C70          1.4920    -7.7020    -3.2650 ca         1 TEM      -0.296235
     90 C71          0.2940    -5.5670    -3.4750 ca         1 TEM       0.030826
     91 C72         -0.8990    -7.7130    -3.4140 ca         1 TEM      -0.296235
     92 C73          0.2990    -8.4280    -3.3320 ca         1 TEM      -0.004857
     93 C74          1.4860    -6.3090    -3.3340 ca         1 TEM       0.189082
     94 O20          2.7360    -5.7050    -3.5190 os         1 TEM      -0.374156
     95 C75          6.5780     1.2170    -2.9760 ca         1 TEM       0.189082
     96 C76          7.9700    -1.1710    -2.7990 ca         1 TEM      -0.296235
     97 C77          7.9620     1.2240    -2.7980 ca         1 TEM      -0.296235
     98 C78          5.8430     0.0200    -3.1000 ca         1 TEM       0.030826
     99 C79          6.5860    -1.1730    -2.9760 ca         1 TEM       0.189082
    100 C80          8.6830     0.0290    -2.7340 ca         1 TEM      -0.004857
    101 C81         -6.0300    -1.2150    -3.8290 ca         1 TEM       0.189082
    102 C82         -7.4330     1.1730    -3.8640 ca         1 TEM      -0.296235
    103 C83         -7.4240    -1.2230    -3.8640 ca         1 TEM      -0.296235
    104 C84         -5.2840    -0.0170    -3.8420 ca         1 TEM       0.030826
    105 C85         -6.0380     1.1750    -3.8290 ca         1 TEM       0.189082
    106 C86         -8.1470    -0.0270    -3.9100 ca         1 TEM      -0.004857
    107 C87         -9.6910    -0.0330    -4.1260 c          1 TEM       0.848600
    108 O21        -10.2210    -1.1700    -4.2190 o          1 TEM      -0.817219
    109 C88          0.2460     9.9850    -3.4310 c          1 TEM       0.848600
    110 O22          1.3820    10.5270    -3.4140 o          1 TEM      -0.817219
    111 C89         10.2410     0.0340    -2.7070 c          1 TEM       0.848600
    112 O23         10.7880    -1.1000    -2.7160 o          1 TEM      -0.817219
    113 O24         -6.1130     3.7130     6.9810 o          1 TEM      -0.837391
    114 O25         -6.0870    -3.7520     6.9830 o          1 TEM      -0.837391
    115 O26          3.2910    -5.6740     7.6050 o          1 TEM      -0.837391
    116 C90          0.3130    -9.9830    -3.4300 c          1 TEM       0.848600
    117 O27          1.4520   -10.5180    -3.4120 o          1 TEM      -0.817219
    118 O28         -0.8860    10.5230    -3.5530 o          1 TEM      -0.817219
    119 O29        -10.2290     1.1010    -4.2190 o          1 TEM      -0.817219
    120 O30         -0.8150   -10.5290    -3.5520 o          1 TEM      -0.817219
    121 O31         10.7800     1.1710    -2.7150 o          1 TEM      -0.817219
    122 O32          3.2520     5.6950     7.6060 o          1 TEM      -0.837391
    123 C91          1.4440     6.3190    -3.3340 ca         1 TEM       0.189082
    124 C92         -0.9510     7.7070    -3.4150 ca         1 TEM      -0.296235
    125 C93          0.2580     5.5690    -3.4750 ca         1 TEM       0.030826
    126 C94          1.4400     7.7120    -3.2660 ca         1 TEM      -0.296235
    127 C95          0.2430     8.4300    -3.3330 ca         1 TEM      -0.004857
    128 C96         -0.9400     6.3130    -3.4830 ca         1 TEM       0.189082
    129 C97          0.2770     4.0820    -3.7280 c3         1 TEM      -0.323844
    130 C98          4.3790     0.0150    -3.4670 c3         1 TEM      -0.323844
    131 C99          0.3040    -4.0800    -3.7290 c3         1 TEM      -0.323844
    132 C100        -3.7820    -0.0120    -3.9900 c3         1 TEM      -0.323844
    133 H1           1.9290     0.0060     4.7840 ha         1 TEM       0.169217
    134 H2           4.5540     0.0150     0.6070 ha         1 TEM       0.170606
    135 H3           3.1450     3.3240     3.4620 hc         1 TEM       0.058740
    136 H4           2.1930     2.1970     0.4200 h2         1 TEM      -0.004253
    137 H5          -0.2590     2.2030     4.6480 ha         1 TEM       0.169217
    138 H6           0.0140     4.5430     0.3160 ha         1 TEM       0.170606
    139 H7          -3.4790     3.3130     3.0330 hc         1 TEM       0.058740
    140 H8          -2.1600     2.1620     0.1370 h2         1 TEM      -0.004253
    141 H9           3.1670    -3.3030     3.4620 hc         1 TEM       0.058740
    142 H10         -4.5170    -0.0150     0.0240 ha         1 TEM       0.170606
    143 H11          0.0440    -4.5420     0.3150 ha         1 TEM       0.170606
    144 H12         -2.1460    -2.1760     0.1370 h2         1 TEM      -0.004253
    145 H13         -0.2450    -2.2040     4.6480 ha         1 TEM       0.169217
    146 H14         -2.4660    -0.0090     4.5080 ha         1 TEM       0.169217
    147 H15         -3.4570    -3.3370     3.0320 hc         1 TEM       0.058740
    148 H16          2.2070    -2.1820     0.4200 h2         1 TEM      -0.004253
    149 H17         -2.4890     2.0180     5.6120 hc         1 TEM       0.020954
    150 H18         -2.6350     3.7470     5.3360 hc         1 TEM       0.020954
    151 H19         -5.1510     3.0140     4.5580 hc         1 TEM       0.000197
    152 H20         -4.8700     1.7980     5.7770 hc         1 TEM       0.000197
    153 H21          3.4380     2.3370     5.7290 hc         1 TEM       0.020954
    154 H22          1.6970     2.1710     5.8870 hc         1 TEM       0.020954
    155 H23          2.7520     4.8940     5.0700 hc         1 TEM       0.000197
    156 H24          1.4500     4.5390     6.1760 hc         1 TEM       0.000197
    157 H25          3.4530    -2.3150     5.7290 hc         1 TEM       0.020954
    158 H26          1.7110    -2.1590     5.8870 hc         1 TEM       0.020954
    159 H27          1.4790    -4.5290     6.1770 hc         1 TEM       0.000197
    160 H28          2.7830    -4.8760     5.0690 hc         1 TEM       0.000197
    161 H29         -2.6100    -3.7650     5.3360 hc         1 TEM       0.020954
    162 H30         -2.4770    -2.0360     5.6110 hc         1 TEM       0.020954
    163 H31         -4.8600    -1.8320     5.7730 hc         1 TEM       0.000197
    164 H32         -5.1300    -3.0530     4.5570 hc         1 TEM       0.000197
    165 H33          4.5950     4.2720    -4.3260 ha         1 TEM       0.201923
    166 H34          2.0450     5.0080    -0.9370 ha         1 TEM       0.170593
    167 H35          5.1020     1.9740    -0.7230 ha         1 TEM       0.170593
    168 H36          4.6220    -4.2410    -4.3270 ha         1 TEM       0.201923
    169 H37          2.0790    -4.9940    -0.9380 ha         1 TEM       0.170593
    170 H38          5.1150    -1.9390    -0.7240 ha         1 TEM       0.170593
    171 H39         -3.8880    -4.2760    -4.8830 ha         1 TEM       0.201923
    172 H40         -4.8670    -1.9620    -1.3880 ha         1 TEM       0.170593
    173 H41         -1.8130    -5.0000    -1.1810 ha         1 TEM       0.170593
    174 H42         -3.9160     4.2500    -4.8820 ha         1 TEM       0.201923
    175 H43         -4.8810     1.9300    -1.3870 ha         1 TEM       0.170593
    176 H44         -1.8460     4.9870    -1.1820 ha         1 TEM       0.170593
    177 H45          2.4290    -8.2460    -3.2210 ha         1 TEM       0.183457
    178 H46         -1.8300    -8.2660    -3.4870 ha         1 TEM       0.183457
    179 H47          8.5200    -2.1060    -2.7700 ha         1 TEM       0.183457
    180 H48          8.5070     2.1620    -2.7690 ha         1 TEM       0.183457
    181 H49         -7.9810     2.1070    -3.9180 ha         1 TEM       0.183457
    182 H50         -7.9660    -2.1610    -3.9190 ha         1 TEM       0.183457
    183 H51         -1.8850     8.2530    -3.4880 ha         1 TEM       0.183457
    184 H52          2.3740     8.2620    -3.2220 ha         1 TEM       0.183457
    185 H53          1.2010     3.7900    -4.2350 hc         1 TEM       0.097134
    186 H54          0.2180     3.4980    -2.8010 hc         1 TEM       0.097134
    187 H55         -0.5720     3.7860    -4.3500 hc         1 TEM       0.097134
    188 H56          3.7270     0.0130    -2.5850 hc         1 TEM       0.097134
    189 H57          4.1270     0.9030    -4.0540 hc         1 TEM       0.097134
    190 H58          4.1330    -0.8740    -4.0530 hc         1 TEM       0.097134
    191 H59         -0.5470    -3.7910    -4.3520 hc         1 TEM       0.097134
    192 H60          0.2410    -3.4960    -2.8020 hc         1 TEM       0.097134
    193 H61          1.2260    -3.7830    -4.2370 hc         1 TEM       0.097134
    194 H62         -3.2650    -0.0110    -3.0220 hc         1 TEM       0.097134
    195 H63         -3.4470    -0.8990    -4.5350 hc         1 TEM       0.097134
    196 H64         -3.4530     0.8780    -4.5340 hc         1 TEM       0.097134
@<TRIPOS>BOND
     1     1     3 ar  
     2     1     4 ar  
     3     1    24 1   
     4     2     5 ar  
     5     2     6 ar  
     6     2     7 1   
     7     3     6 ar  
     8     3   133 1   
     9     4     5 ar  
    10     4    23 1   
    11     5   134 1   
    12     6     8 1   
    13     7     9 1   
    14     8    12 1   
    15     8    45 1   
    16     8   135 1   
    17     9    10 1   
    18     9    57 1   
    19     9   136 1   
    20    10    11 1   
    21    11    12 ar  
    22    11    14 ar  
    23    12    13 ar  
    24    13    15 ar  
    25    13   137 1   
    26    14    16 ar  
    27    14   138 1   
    28    15    16 ar  
    29    15    18 1   
    30    16    17 1   
    31    17    21 1   
    32    18    19 1   
    33    18    41 1   
    34    18   139 1   
    35    19    20 ar  
    36    19    37 ar  
    37    20    22 1   
    38    20    28 ar  
    39    21    22 1   
    40    21    75 1   
    41    21   140 1   
    42    23    40 1   
    43    24    25 1   
    44    24    49 1   
    45    24   141 1   
    46    25    27 ar  
    47    25    35 ar  
    48    26    27 1   
    49    26    40 1   
    50    27    30 ar  
    51    28    29 ar  
    52    28   142 1   
    53    29    32 1   
    54    29    39 ar  
    55    30    31 ar  
    56    30   143 1   
    57    31    33 1   
    58    31    36 ar  
    59    32    34 1   
    60    33    34 1   
    61    34    69 1   
    62    34   144 1   
    63    35    36 ar  
    64    35   145 1   
    65    36    38 1   
    66    37    39 ar  
    67    37   146 1   
    68    38    39 1   
    69    38    53 1   
    70    38   147 1   
    71    40    63 1   
    72    40   148 1   
    73    41    42 1   
    74    41   149 1   
    75    41   150 1   
    76    42    43 1   
    77    42   151 1   
    78    42   152 1   
    79    43    44 1   
    80    43   113 1   
    81    45    46 1   
    82    45   153 1   
    83    45   154 1   
    84    46    47 1   
    85    46   155 1   
    86    46   156 1   
    87    47    48 1   
    88    47   122 1   
    89    49    50 1   
    90    49   157 1   
    91    49   158 1   
    92    50    51 1   
    93    50   159 1   
    94    50   160 1   
    95    51    52 1   
    96    51   115 1   
    97    53    54 1   
    98    53   161 1   
    99    53   162 1   
   100    54    55 1   
   101    54   163 1   
   102    54   164 1   
   103    55    56 1   
   104    55   114 1   
   105    57    59 ar  
   106    57    60 ar  
   107    58    61 ar  
   108    58    62 ar  
   109    58   165 1   
   110    59    62 ar  
   111    59   166 1   
   112    60    61 ar  
   113    60   167 1   
   114    61    84 1   
   115    62    85 1   
   116    63    65 ar  
   117    63    66 ar  
   118    64    67 ar  
   119    64    68 ar  
   120    64   168 1   
   121    65    68 ar  
   122    65   169 1   
   123    66    67 ar  
   124    66   170 1   
   125    67    81 1   
   126    68    94 1   
   127    69    71 ar  
   128    69    72 ar  
   129    70    73 ar  
   130    70    74 ar  
   131    70   171 1   
   132    71    74 ar  
   133    71   172 1   
   134    72    73 ar  
   135    72   173 1   
   136    73    82 1   
   137    74    83 1   
   138    75    77 ar  
   139    75    78 ar  
   140    76    79 ar  
   141    76    80 ar  
   142    76   174 1   
   143    77    80 ar  
   144    77   175 1   
   145    78    79 ar  
   146    78   176 1   
   147    79    87 1   
   148    80    86 1   
   149    81    99 1   
   150    82    88 1   
   151    83   101 1   
   152    84    95 1   
   153    85   123 1   
   154    86   105 1   
   155    87   128 1   
   156    88    90 ar  
   157    88    91 ar  
   158    89    92 ar  
   159    89    93 ar  
   160    89   177 1   
   161    90    93 ar  
   162    90   131 1   
   163    91    92 ar  
   164    91   178 1   
   165    92   116 1   
   166    93    94 1   
   167    95    97 ar  
   168    95    98 ar  
   169    96    99 ar  
   170    96   100 ar  
   171    96   179 1   
   172    97   100 ar  
   173    97   180 1   
   174    98    99 ar  
   175    98   130 1   
   176   100   111 1   
   177   101   103 ar  
   178   101   104 ar  
   179   102   105 ar  
   180   102   106 ar  
   181   102   181 1   
   182   103   106 ar  
   183   103   182 1   
   184   104   105 ar  
   185   104   132 1   
   186   106   107 1   
   187   107   108 1   
   188   107   119 1   
   189   109   110 1   
   190   109   118 1   
   191   109   127 1   
   192   111   112 1   
   193   111   121 1   
   194   116   117 1   
   195   116   120 1   
   196   123   125 ar  
   197   123   126 ar  
   198   124   127 ar  
   199   124   128 ar  
   200   124   183 1   
   201   125   128 ar  
   202   125   129 1   
   203   126   127 ar  
   204   126   184 1   
   205   129   185 1   
   206   129   186 1   
   207   129   187 1   
   208   130   188 1   
   209   130   189 1   
   210   130   190 1   
   211   131   191 1   
   212   131   192 1   
   213   131   193 1   
   214   132   194 1   
   215   132   195 1   
   216   132   196 1   
@<TRIPOS>SUBSTRUCTURE
     1 TEM         1 TEMP              0 ****  ****    0 ROOT
